20
 energy: -19.993836688329 gnorm: 0.000611515575 xtb: 6.6.1 (8d0f1dd)
C            3.18281860935274        0.22249652031476       -0.00089645562913
C            1.86838316504876       -0.54861829861577        0.00054389610702
C            0.65971611912579        0.38440250475721       -0.00126097988178
C           -0.65961377965629       -0.38371642832643        0.00168814551897
C           -1.86869176962380        0.54876132176087        0.00218950632443
C           -3.18255250461053       -0.22334107781132       -0.00221825055487
H            3.25371897557052        0.85737125183502        0.87966222543203
H            3.25362804926479        0.85434713880823       -0.88363078255356
H            4.02817417636495       -0.46176075226964        0.00024560092973
H            1.82614888637559       -1.19403583253434       -0.87972367023847
H            1.82612132349491       -1.19062478190260        0.88330295531138
H            0.70170498638491        1.02618579638849       -0.88453016011381
H            0.70288141536683        1.03107854348782        0.87838722295535
H           -0.70080712891720       -1.02671394876561        0.88411919186297
H           -0.70326838610746       -1.02922971793113       -0.87879184587461
H           -1.82829165941060        1.19005535794326        0.88554732970248
H           -1.82543878087768        1.19491911980259       -0.87748347278538
H           -3.25178304169808       -0.86359457110811        0.87457483376955
H           -4.02850123720026        0.46015194869628        0.00409021023488
H           -3.25393543753205       -0.84992510163996       -0.88865349882941
