32        
         -4.62105753
C 4.907465 1.342964 -0.078963
C 4.153154 0.066363 0.258750
C 2.694695 0.102716 -0.201030
C 1.932761 -1.182777 0.124906
C 0.496017 -1.193403 -0.405732
C -0.417838 -0.174326 0.275828
C -1.847904 -0.204832 -0.264826
C -2.771902 0.792765 0.434891
C -4.183365 0.841273 -0.159588
C -4.959255 -0.454614 0.020996
H 5.948536 1.305460 0.251220
H 4.911457 1.526357 -1.155560
H 4.444685 2.212277 0.392979
H 4.654827 -0.799876 -0.193750
H 4.188136 -0.119784 1.340831
H 2.191546 0.963968 0.254385
H 2.655319 0.288751 -1.281631
H 2.488225 -2.037833 -0.283112
H 1.925266 -1.339047 1.210815
H 0.060264 -2.194971 -0.290383
H 0.504668 -1.008992 -1.487281
H -0.007463 0.835743 0.159024
H -0.428190 -0.354517 1.358127
H -1.836871 -0.002418 -1.343178
H -2.251736 -1.219881 -0.169483
H -2.314113 1.790325 0.395431
H -2.830974 0.547875 1.502823
H -4.745602 1.671556 0.291687
H -4.116307 1.090951 -1.227281
H -4.473125 -1.288769 -0.488112
H -5.039219 -0.723222 1.076438
H -5.974949 -0.382823 -0.376336
