47
 energy: -48.471667294718 gnorm: 0.000913279356 xtb: 6.6.1 (8d0f1dd)
C           -5.91855170829695        5.35578256389585        1.20791776329473
C           -4.82716105213941        4.31727012719204        1.43678920526447
C           -5.02452344269618        3.08094535368060        0.56260543897617
C           -3.92212927109430        2.04722738303806        0.77817882152524
C           -4.10513016986467        0.81961785877935       -0.11185983435951
C           -3.05856639740269       -0.26697672886913        0.13910379710176
C           -1.65348414035589        0.13816463896312       -0.30090131185125
C           -0.63796657648055       -0.97908759889016       -0.07488302329825
C            0.77037603818914       -0.55968662819103       -0.48945017706032
C            1.80276700643963       -1.64876798976072       -0.20968617699416
C            3.21126663960494       -1.21883611703989       -0.61267156902525
C            4.25176301490762       -2.29044864869775       -0.29644171011020
C            5.65690621925215       -1.85551018520614       -0.70737936006965
C            6.74374235559296       -2.84845204696102       -0.29383138947697
C            6.65646438408703       -4.17654754046498       -1.03716319158328
H           -5.75822422505579        6.22654676770676        1.83946561647237
H           -6.89621898373249        4.93858741572293        1.43929392083261
H           -5.92306794941004        5.68049927999520        0.16962711461862
H           -3.85334056295667        4.76112585856871        1.21736504671660
H           -4.82446425504969        4.01878159679570        2.48759935471374
H           -5.03614798450793        3.38139426757364       -0.48783516342449
H           -5.99444173597462        2.63105085058282        0.78756631876954
H           -2.95828451288829        2.51389755031068        0.56888022195058
H           -3.92005740390625        1.73467473806913        1.82513968441332
H           -5.09750098650080        0.39991765285525        0.07094014931267
H           -4.06453949397442        1.12362910981098       -1.16041264493848
H           -3.04625452090212       -0.51484753257571        1.20307917843637
H           -3.34967944135788       -1.16869453433411       -0.40534417563910
H           -1.67046538872678        0.40316297194612       -1.36062619657983
H           -1.33320448776774        1.01935399384459        0.25702681717300
H           -0.63497385133632       -1.25262688297594        0.98292749334671
H           -0.93539026855526       -1.86356435344299       -0.64293849916795
H            1.04959824617032        0.34623494541646        0.05392132164941
H            0.77734179460247       -0.31927708271748       -1.55510640080681
H            1.53009712504683       -2.55518403104346       -0.75513614019833
H            1.79098778477270       -1.88952449290366        0.85598618664508
H            3.23018837382668       -1.00141780219129       -1.68319168495487
H            3.47030794595994       -0.29750438809265       -0.08536428380791
H            3.98185275048568       -3.21025587368345       -0.81748279750563
H            4.23915125887534       -2.49867006162532        0.77613373785036
H            5.68991498742696       -1.71636773530719       -1.79046997289511
H            5.87255642243732       -0.88898257889610       -0.24487560801684
H            6.67506106945761       -3.02946804178386        0.78127141947388
H            7.71962028723876       -2.39814618103587       -0.49088074053942
H            6.68225743623250       -4.01205274524983       -2.11227504286965
H            7.49438230121783       -4.81577596411411       -0.76799267965816
H            5.73771493605472       -4.70198597851266       -0.79061756922807
