17
 energy: -16.829455283056 gnorm: 0.000412403843 xtb: 6.6.1 (8d0f1dd)
C           -2.52814803212278        0.33332191160407       -0.00096407476999
C           -1.26666325838021       -0.52075366883712       -0.00102921019483
C            0.00001354871564        0.33138877635528        0.00266837035839
C            1.26664110371664       -0.52082904566363        0.00079880667581
C            2.52816880344876        0.33318404696596       -0.00144393356008
H           -2.55554745693667        0.97410614950302       -0.87982762567723
H           -2.56124002212928        0.96590739963696        0.88361940474432
H           -3.41614211673266       -0.29477540914337       -0.00676301261545
H           -1.26469599986663       -1.16420086654227       -0.88413286923490
H           -1.26733531951518       -1.16840787691953        0.87898732622416
H           -0.00055792948483        0.97413543035339        0.88643466191097
H            0.00061906240871        0.97962280945659       -0.87709660510291
H            1.26458474033464       -1.16646294216121       -0.88070526442536
H            1.26734556244805       -1.16630290293826        0.88241565943887
H            3.41613747056953       -0.29496327734063        0.00163517428679
H            2.55773541392340        0.97324809799750        0.87786918722139
H            2.55913221841057        0.96648636198065       -0.88558892867330
