26        
         -3.73474924
C 4.463740 -0.265294 -0.040507
C 3.171318 0.534983 0.006246
C 1.925866 -0.352854 0.006652
C 0.621928 0.444721 0.031640
C -0.621799 -0.444249 0.030268
C -1.925891 0.353067 0.005952
C -3.171128 -0.535113 0.006886
C -4.463952 0.264827 -0.040560
H 4.545250 -0.935618 0.817867
H 5.346704 0.378618 -0.039336
H 4.511499 -0.885884 -0.937991
H 3.156986 1.180390 0.895193
H 3.123655 1.226398 -0.846159
H 1.940115 -1.006742 -0.874319
H 1.958424 -1.034041 0.866185
H 0.606064 1.100829 0.910897
H 0.589844 1.123294 -0.829938
H -0.589099 -1.121523 -0.832367
H -0.606469 -1.102169 0.908260
H -1.957914 1.034618 0.865238
H -1.941100 1.006719 -0.875241
H -3.123580 -1.227551 -0.844618
H -3.156430 -1.179284 0.896675
H -4.540586 0.942279 0.812447
H -5.346828 -0.378964 -0.028260
H -4.517511 0.877575 -0.942901
