  17
         -2.40316912
 C         -2.5401225644        0.3290857983       -0.0012211009
 C         -1.2763119786       -0.5166909607       -0.0006473729
 C          0.0000759113        0.3263613303        0.0032270316
 C          1.2761390313       -0.5167749476        0.0008029052
 C          2.5402154619        0.3290389451       -0.0018752572
 H         -2.5790101723        0.9810962597       -0.8764438589
 H         -2.5859988063        0.9719422464        0.8803224553
 H         -3.4449434326       -0.2837716358       -0.0077724659
 H         -1.2673235430       -1.1839273585       -0.8732341759
 H         -1.2706609788       -1.1880529199        0.8687359023
 H         -0.0003916294        0.9916159862        0.8757595733
 H          0.0007096866        0.9976265354       -0.8646943659
 H          1.2671782434       -1.1858257111       -0.8704131559
 H          1.2701409182       -1.1862091855        0.8717315033
 H          3.4451590969       -0.2837939083        0.0022517682
 H          2.5815704127        0.9805019163        0.8736648239
 H          2.5836195227        0.9724834521       -0.8833186771
