  17
         -2.40316912
 C         -2.5401225644        0.3290857983       -0.0012211009
 C         -1.2763119786       -0.5166909607       -0.0006473729
 C          0.0000759113        0.3263613303        0.0032270316
 C          1.2761390313       -0.5167749476        0.0008029052
 C          2.5402154619        0.3290389451       -0.0018752572
 H         -2.5790101723        0.9810962597       -0.8764438589
 H         -2.5859988063        0.9719422464        0.8803224553
 H         -3.4449434326       -0.2837716358       -0.0077724659
 H         -1.2673235430       -1.1839273585       -0.8732341759
 H         -1.2706609788       -1.1880529199        0.8687359023
 H         -0.0003916294        0.9916159862        0.8757595733
 H          0.0007096866        0.9976265354       -0.8646943659
 H          1.2671782434       -1.1858257111       -0.8704131559
 H          1.2701409182       -1.1862091855        0.8717315033
 H          3.4451590969       -0.2837939083        0.0022517682
 H          2.5815704127        0.9805019163        0.8736648239
 H          2.5836195227        0.9724834521       -0.8833186771
  17
         -2.40242338
 C         -2.4158737966        0.2833441616        0.1262541285
 C         -0.9959741372       -0.1568431359        0.4477688684
 C         -0.0475503581       -0.0043810962       -0.7431162174
 C          1.3761646120       -0.4971363113       -0.4631121926
 C          2.1057796638        0.3306660479        0.5841401469
 H         -2.8325811401       -0.2972085413       -0.6994941819
 H         -2.4458954564        1.3331204925       -0.1728373488
 H         -3.0863551988        0.1657611001        0.9811914007
 H         -0.9915994135       -1.2027568147        0.7828804674
 H         -0.6116423798        0.4164331885        1.3013230235
 H         -0.0168348324        1.0478446032       -1.0520287550
 H         -0.4680601161       -0.5419099747       -1.6034591727
 H          1.9558310045       -0.4993627143       -1.3973422819
 H          1.3391975245       -1.5490045048       -0.1494636109
 H          2.1430026296        1.3839892044        0.2983949292
 H          3.1355617111       -0.0061012239        0.7280505088
 H          1.6106984056        0.2777117642        1.5555719173
  17
         -2.40184803
 C         -1.8780572580        0.6604356213       -0.3422632913
 C         -1.1083144329       -0.1865134465        0.6600212516
 C          0.0002109675       -1.0287644943        0.0193263329
 C          1.1069127126       -0.2089224281       -0.6529441163
 C          1.8792125288        0.6720777310        0.3175417787
 H         -2.3068744953        0.0423594113       -1.1340321634
 H         -1.2340393576        1.3997726278       -0.8224043141
 H         -2.7004056681        1.2064782248        0.1278826193
 H         -1.8072070885       -0.8462511667        1.1949571427
 H         -0.6787031536        0.4548789909        1.4408672278
 H         -0.4517309336       -1.7106591306       -0.7136570286
 H          0.4533185300       -1.6818448403        0.7772922331
 H          0.6754983062        0.4050613705       -1.4543936312
 H          1.8045469267       -0.8870528802       -1.1658736009
 H          2.6990911718        1.2018503009       -0.1733312951
 H          2.3106493404        0.0815324121        1.1282618454
 H          1.2362792559        1.4264957299        0.7743873419
  17
         -2.40184022
 C         -1.8734303744        0.6756320068        0.3174978226
 C         -1.1073690831       -0.2111447333       -0.6523466392
 C         -0.0002767869       -1.0314342849        0.0184387906
 C          1.1088273908       -0.1900275991        0.6592451621
 C          1.8723622543        0.6644737491       -0.3413181252
 H         -2.2951241497        0.0923747032        1.1382168186
 H         -2.6996579664        1.1986929039       -0.1699432148
 H         -1.2283910772        1.4355141546        0.7613476799
 H         -0.6773488865        0.3986871701       -1.4573883174
 H         -1.8084612019       -0.8888489318       -1.1606539926
 H          0.4506925900       -1.7126826425       -0.7154759751
 H         -0.4529150853       -1.6845575102        0.7764803569
 H          1.8109488560       -0.8513241050        1.1871973984
 H          0.6814578344        0.4462418133        1.4451123723
 H          1.2288228072        1.4174332448       -0.7986506924
 H          2.2824759280        0.0560574650       -1.1494162137
 H          2.7061489713        1.1947312571        0.1250957774
  17
         -2.40183192
 C         -1.9011562336        0.6573332929        0.3188427120
 C         -1.1060896940       -0.1986841865       -0.6553213685
 C         -0.0001272785       -1.0182291375        0.0189189985
 C          1.1067253930       -0.1752971534        0.6621496946
 C          1.9006882301        0.6452993598       -0.3429354739
 H         -2.3455385639        0.0473524822        1.1081970192
 H         -2.7142492250        1.1940818597       -0.1764871445
 H         -1.2712750339        1.4046235914        0.8048483962
 H         -0.6700682812        0.4330319273       -1.4401350930
 H         -1.7896249418       -0.8746434782       -1.1894564248
 H          0.4543269862       -1.6996402161       -0.7126854112
 H         -0.4553159863       -1.6713483171        0.7754532455
 H          1.7907812220       -0.8318680859        1.2193028772
 H          0.6717395666        0.4842034850        1.4243707217
 H          2.3420687150        0.0076853620       -1.1118663081
 H          2.7158636705        1.1974838574        0.1315567960
 H          1.2708102276        1.3765236423       -0.8528158596
  17
         -2.39941019
 C         -1.6181893182        0.8095264140        0.4714167000
 C         -1.3583427574       -0.5455071050       -0.1673428387
 C          0.0235577891       -0.6843446620       -0.8207927699
 C          1.2121737927       -0.5590843637        0.1549071480
 C          1.7321926233        0.8637230304        0.3097810508
 H         -2.6477077553        0.9030802936        0.8262881247
 H         -1.4412023170        1.6219066626       -0.2365822394
 H         -0.9711613282        0.9773536566        1.3339526024
 H         -2.1358038343       -0.7470553654       -0.9188959274
 H         -1.4820595062       -1.3377761102        0.5837891107
 H          0.1311351510        0.0628734216       -1.6168499365
 H          0.0740887581       -1.6539802641       -1.3369637253
 H          2.0382431068       -1.2020757409       -0.1836924215
 H          0.9235844194       -0.9702587238        1.1316574752
 H          2.5732613788        0.9181533932        1.0055058928
 H          0.9642400399        1.5435926463        0.6788274058
 H          2.0759606475        1.2628078085       -0.6469938421
