38
 energy: -38.976433053786 gnorm: 0.000194711043 xtb: 6.6.1 (8d0f1dd)
C            3.02337084292929        2.71142236706651       -0.65184520096808
C            2.94183159629520        1.60386956179153        0.39163723029818
C            2.37284357015028        0.31344773481254       -0.19347483025786
C            2.26298234148461       -0.78840504625650        0.85779223783222
C            1.78888421783070       -2.12945940175015        0.29325140451236
C            0.39803458500560       -2.10258829242674       -0.34335780547929
C           -0.70659364474146       -1.74793650616939        0.64888362177865
C           -2.10869079258059       -1.82402164798580        0.04329951555844
C           -2.36343391279620       -0.85318426309388       -1.11339508857433
C           -2.07957636726720        0.61688525258945       -0.80139704225017
C           -2.92537796250237        1.17873506540765        0.33857790678136
C           -2.65879831209836        2.66465707254348        0.54821535463807
H            2.03391554824699        2.94405834630270       -1.04042359281079
H            3.65304834122947        2.40469095898101       -1.48438521867424
H            3.44327288117228        3.61679089416195       -0.21947518187445
H            3.93855480097559        1.41026403239148        0.79492583197912
H            2.30980900492553        1.93265264738894        1.22037709047076
H            3.01481183135256       -0.02764029958032       -1.00938282863178
H            1.38836957614156        0.52600193807499       -0.61375067706302
H            3.24686525669924       -0.93847279823659        1.31049174692731
H            1.58981758604936       -0.46377609971966        1.65334859519392
H            2.50789019650390       -2.46559901586596       -0.45844496523173
H            1.79156434203746       -2.86478147334722        1.10224913363845
H            0.19138012963463       -3.09224904844140       -0.75969569580073
H            0.39534698104563       -1.39465421098455       -1.17182379221119
H           -0.65727769081050       -2.44335509044359        1.49132636136762
H           -0.54134997449302       -0.74614648024849        1.04403696547780
H           -2.83914876555628       -1.63746530936892        0.83342930198020
H           -2.28166956740047       -2.83954323928286       -0.32301409928064
H           -3.41011442774311       -0.95220438245522       -1.41331993288740
H           -1.75388584066602       -1.14902951928437       -1.96989356734776
H           -1.02321299800083        0.74673198133291       -0.55989191253254
H           -2.27753220161118        1.20095712707398       -1.70448898705901
H           -2.70174481153551        0.64414360297844        1.26313681208679
H           -3.98344019278591        1.02614568063961        0.11301390283239
H           -2.90805686854472        3.22902016888099       -0.34806713603892
H           -1.60811845375508        2.83413804434234        0.77587349514414
H           -3.25409617265679        3.05016540172161        1.37287899148059
