23        
         -3.29018548
C -3.710685 -0.047362 -0.179236
C -2.340285 -0.531976 0.268150
C -1.210106 0.400605 -0.170646
C 0.170840 -0.084411 0.271911
C 1.300757 0.842808 -0.177466
C 2.685096 0.403595 0.310924
C 3.144751 -0.916541 -0.289083
H -3.932605 0.941266 0.228141
H -3.765244 0.034170 -1.266917
H -4.509611 -0.721193 0.139905
H -2.315855 -0.642209 1.360894
H -2.149814 -1.540991 -0.122367
H -1.228537 0.513842 -1.261945
H -1.390801 1.408995 0.222556
H 0.341076 -1.096560 -0.114076
H 0.192091 -0.188667 1.363914
H 1.085392 1.861666 0.171354
H 1.302683 0.910558 -1.272559
H 3.422457 1.186746 0.082566
H 2.675509 0.333181 1.407103
H 3.155719 -0.871404 -1.380280
H 2.483949 -1.738496 -0.007364
H 4.152543 -1.185983 0.037282
