47
 energy: -48.469896659890 gnorm: 0.000267621683 xtb: 6.6.1 (8d0f1dd)
C            0.39840748276228        3.20437445598872        1.05144707687808
C           -0.67889458028180        2.68093865053123        0.10921355989847
C           -2.00770512283688        2.47571544696929        0.83352599152918
C           -3.16436292205156        2.09490897542215       -0.09393853793475
C           -2.93188314093930        0.83857351017833       -0.93574182186199
C           -2.64808247352613       -0.41020095506470       -0.10473552712569
C           -2.38796124182511       -1.62472757558057       -0.99274550106946
C           -2.02608153805450       -2.89080265534552       -0.21257125499331
C           -0.81558662833616       -2.75223608886886        0.71443688922706
C            0.44544114894528       -2.26267227132630        0.00637529871464
C            1.63068811240803       -2.17351375046386        0.96504704971779
C            2.90215436272620       -1.63842658969197        0.30472549414085
C            2.80814797091792       -0.16269130147752       -0.07877541753671
C            4.13296304377126        0.37494902343149       -0.61421587183284
C            4.03474108670835        1.84975848261066       -0.98465317777260
H            0.55347489495419        2.51056949064646        1.87551101901362
H            0.11027007458057        4.16763126517119        1.46747604641827
H            1.34117720828467        3.32669073318726        0.52303335145337
H           -0.81994888489937        3.38917880431881       -0.71066037279824
H           -0.34149567512684        1.73612379301541       -0.31946354767484
H           -2.27586101320144        3.40504809873792        1.34334701535598
H           -1.88439780352631        1.71203292432439        1.60383042629324
H           -4.06071296576104        1.95208295794849        0.51508829088291
H           -3.35833823943085        2.92976009451837       -0.77257203791211
H           -3.82091666105603        0.66570271562979       -1.54807147819469
H           -2.09868004638183        1.00997202114469       -1.62041893570959
H           -1.77273703698490       -0.22953132474057        0.51689748041641
H           -3.49418821233006       -0.61274909630441        0.55607468305885
H           -3.28171863861860       -1.83060994137395       -1.58762018097221
H           -1.58473931349731       -1.38942283657650       -1.69402674838914
H           -2.88608228593428       -3.19469288137237        0.38958458805974
H           -1.82982628190209       -3.69027449728136       -0.93167038325303
H           -0.61496769203543       -3.72872052024164        1.16329474364466
H           -1.05604002075154       -2.06870526371009        1.53117833737939
H            0.25934662045286       -1.27746481478298       -0.41905721646703
H            0.69046567245934       -2.94227062484065       -0.81334312295396
H            1.36551779964184       -1.52562725792511        1.80460490655824
H            1.83373016488520       -3.16806439552782        1.37042543997734
H            3.12483867829328       -2.23155868292026       -0.58552859932005
H            3.73614507136034       -1.76421850671904        1.00013363116261
H            2.04113179128523       -0.02497058046258       -0.84293356392888
H            2.51296498832755        0.41935224990975        0.79763631878167
H            4.42735155858435       -0.20232831565194       -1.49390086295839
H            4.90998013663234        0.24236079461108        0.14236526658657
H            3.27193235538213        2.00223593210205       -1.74553440604230
H            3.77089184542763        2.44352622308205       -0.11177531987931
H            4.98345449990010        2.21384305047002       -1.37221375789412
