  29
         -4.17848840
 C         -5.0847328215        0.3780882428        0.0841417043
 C         -3.8248704525       -0.4725581086        0.0402158141
 C         -2.5482386648        0.3657232415       -0.0410629397
 C         -1.2749999763       -0.4803272955       -0.0446292582
 C         -0.0000307362        0.3615804708       -0.0932986065
 C          1.2750389337       -0.4803546328       -0.0468895656
 C          2.5481539923        0.3658857418       -0.0374250195
 C          3.8246589581       -0.4724250525        0.0454932682
 C          5.0850024710        0.3778988266        0.0793953635
 H         -5.9903729613       -0.2305592600        0.1447094762
 H         -5.1695012089        1.0054617457       -0.8056791774
 H         -5.0804326627        1.0456618158        0.9484897873
 H         -3.8618458288       -1.1624634996       -0.8138150493
 H         -3.7763821437       -1.1209087644        0.9257199602
 H         -2.5759967808        0.9963777291       -0.9385074164
 H         -2.5180746596        1.0700956632        0.7997230099
 H         -1.2932496362       -1.1750542984       -0.8936446895
 H         -1.2578246209       -1.1206237630        0.8462235476
 H          0.0006464505        1.0731318671        0.7419295414
 H         -0.0007846122        0.9842201555       -0.9967478722
 H          1.2945584655       -1.1712040205       -0.8990691851
 H          1.2567495675       -1.1247603758        0.8409825640
 H          2.5155932416        1.0684300309        0.8048136562
 H          2.5783322475        0.9984343573       -0.9334633390
 H          3.7787098632       -1.1151217233        0.9352594225
 H          3.8586267667       -1.1677606125       -0.8042536074
 H          5.1673213641        0.9987220421       -0.8152522019
 H          5.9905314755       -0.2307806127        0.1413461928
 H          5.0836137083        1.0518676749        0.9387773217
