23
 energy: -23.156485910766 gnorm: 0.000181879332 xtb: 6.6.1 (8d0f1dd)
C           -3.08186696021321        0.97021125194316        0.12821378220050
C           -1.85160383639920        0.28677811116882       -0.45674177428793
C           -1.15495461906992       -0.59565930885411        0.57658251982228
C            0.00021195440449       -1.41667542950231        0.00094542141955
C            1.15444419722536       -0.59527128315093       -0.57597728760238
C            1.85179598709433        0.28759949537633        0.45647546248679
C            3.08037955432456        0.97251907046676       -0.13026582598695
H           -3.80112119899055        0.23155521335589        0.47605952282479
H           -2.80366523359178        1.59831394452536        0.97208108855809
H           -3.56604911125555        1.59480307101436       -0.61912635073315
H           -2.14852141820006       -0.32557675108745       -1.31157806998025
H           -1.16037818679602        1.05022376725691       -0.81711590818675
H           -0.79396793929144        0.02489366515947        1.39858657003242
H           -1.88933852096313       -1.29001255475666        0.99370509458742
H           -0.39108677394348       -2.06421925036922       -0.78817432044585
H            0.39222681868466       -2.06256937546293        0.79106458295428
H            0.79237504151904        0.02495516094277       -1.39773815451575
H            1.88874263868677       -1.28935517395468       -0.99369815075414
H            1.16037790612499        1.05016061994634        0.81834473701772
H            2.15078602725754       -0.32472897155531        1.31061440633804
H            2.79972689310735        1.60292911904105       -0.97161161815470
H            3.79845411776625        0.23470287929621       -0.48234109786920
H            3.56693581824117        1.59499675343477        0.61727666787021
