29        
         -4.17686355
C -3.345525 1.550487 0.817394
C -2.595511 0.659915 -0.161132
C -2.094010 -0.633255 0.484348
C -1.393696 -1.579649 -0.495831
C -0.133229 -0.998158 -1.143492
C 0.960723 -0.635792 -0.138898
C 2.233187 -0.114288 -0.807644
C 3.359858 0.199229 0.182126
C 3.031169 1.347301 1.124902
H -3.698575 2.471938 0.347715
H -2.710701 1.834395 1.659525
H -4.216918 1.038110 1.230659
H -1.748457 1.210223 -0.591324
H -3.238465 0.412042 -1.016645
H -1.420893 -0.389077 1.314981
H -2.942368 -1.147411 0.956169
H -2.107156 -1.873878 -1.277188
H -1.130304 -2.513530 0.018640
H -0.391284 -0.112527 -1.736264
H 0.274110 -1.712278 -1.871640
H 1.200215 -1.512074 0.476261
H 0.582158 0.113736 0.565185
H 1.996091 0.784584 -1.390513
H 2.576240 -0.851562 -1.545810
H 3.594057 -0.704734 0.760830
H 4.282533 0.430137 -0.370044
H 2.177931 1.111880 1.764021
H 2.778656 2.253376 0.569872
H 3.869437 1.590189 1.782800
