29
 energy: -29.484385441934 gnorm: 0.000284770200 xtb: 6.6.1 (8d0f1dd)
C           -3.45161642036032        1.49239441083650        0.81980760103842
C           -2.60374593131499        0.67802810026273       -0.15010968438201
C           -2.11220180316387       -0.61982126866103        0.48664204025738
C           -1.38286845350045       -1.54377402294686       -0.49043793927564
C           -0.12391096219629       -0.95235625007865       -1.12709360515039
C            0.95840147017194       -0.59283337041561       -0.11180458581011
C            2.24225322056358       -0.13175713868774       -0.79834395577137
C            3.38282149534987        0.15370316689291        0.17922980648015
C            3.11639619590984        1.35246552977508        1.08268884048354
H           -3.78309057759273        2.41862798720861        0.35576585680602
H           -2.87843984025250        1.74130345940394        1.71046009386678
H           -4.33019958607490        0.92897070108409        1.12679850538750
H           -1.75101359515522        1.28048940644487       -0.46679309386612
H           -3.19438487350023        0.44199233404884       -1.03842044034360
H           -1.46108147409274       -0.38511820488299        1.33059077331307
H           -2.97430452360603       -1.16160198235070        0.88505344417591
H           -2.07504316903833       -1.82304852319686       -1.28922962600644
H           -1.10812131089165       -2.45910649332783        0.04036475329442
H           -0.38479338802222       -0.06633782014337       -1.70859009813656
H            0.28042172504118       -1.68955220159110       -1.82628987472879
H            1.17526803422783       -1.46657916908710        0.50791027617888
H            0.59368954993444        0.20035320533566        0.54033872545781
H            2.03573382116625        0.76808137254351       -1.38314469522901
H            2.56684480973419       -0.90865694420356       -1.49567407399459
H            3.55860108303492       -0.73162893019233        0.79474878013815
H            4.29350483378642        0.34196332796608       -0.39476619874172
H            2.28399711499695        1.15906180067940        1.75416683559480
H            2.88254647726812        2.23279906071284        0.48752377370839
H            3.99362601773579        1.57127140301987        1.68760774953292
