14
 energy: -13.665127472753 gnorm: 0.000436165207 xtb: 6.6.1 (8d0f1dd)
C           -1.93751284006290       -0.13494784984697       -0.00041899013934
C           -0.56110114429129        0.51761272394015        0.00052959201181
C            0.56113874696172       -0.51762351572669        0.00053903127023
C            1.93749065935979        0.13506153882545       -0.00039700250275
H           -2.06266287640020       -0.76068069151173       -0.88169379049256
H           -2.06473656165566       -0.75908147039192        0.88168897018195
H           -2.72027026089488        0.62020598680990       -0.00203459038905
H           -0.46124043088989        1.15549494877037       -0.88090496217015
H           -0.46207027662475        1.15471983863386        0.88260806572304
H            0.46135231328509       -1.15549656164488       -0.88090707525532
H            0.46211046276820       -1.15474979448622        0.88260605890387
H            2.06380712946328        0.76089051557585        0.88063996216870
H            2.72034646365442       -0.61999231769824        0.00014926286224
H            2.06338461702700        0.75913464797790       -0.88273953325477
