56        
         -8.17344804
C 4.355715 -0.010798 -0.049559
C 4.134692 -1.151340 -1.029706
C 3.893631 -2.499875 -0.343716
C 2.644808 -2.542048 0.542330
C 1.345617 -2.282325 -0.220395
C 0.097999 -2.473184 0.641862
C -1.195854 -2.211460 -0.127639
C -2.451471 -2.418435 0.720215
C -3.754901 -2.187968 -0.052280
C -3.900974 -0.771241 -0.615243
C -3.993462 0.308047 0.464438
C -3.998829 1.732743 -0.097452
C -2.683824 2.140546 -0.771270
C -1.488988 2.157393 0.183507
C -0.194094 2.620346 -0.484017
C 0.973514 2.724887 0.497086
C 2.266432 3.211570 -0.158666
C 3.394248 3.410585 0.842480
H 3.471477 0.162896 0.566387
H 5.184184 -0.226563 0.628382
H 4.586920 0.927530 -0.559723
H 5.001544 -1.231047 -1.701798
H 3.290110 -0.917802 -1.691433
H 3.818335 -3.291013 -1.101817
H 4.778157 -2.758029 0.253884
H 2.739140 -1.817925 1.360613
H 2.576044 -3.519048 1.039527
H 1.292868 -2.946366 -1.092219
H 1.349844 -1.266727 -0.634594
H 0.148451 -1.813036 1.516955
H 0.084189 -3.490662 1.052238
H -1.173929 -1.190227 -0.525866
H -1.237967 -2.860978 -1.010977
H -2.411306 -1.759725 1.595713
H -2.438392 -3.435004 1.135829
H -4.615158 -2.406996 0.593904
H -3.815318 -2.917795 -0.870721
H -3.059223 -0.558081 -1.282616
H -4.788110 -0.708683 -1.259894
H -4.895139 0.133580 1.066946
H -3.163139 0.200713 1.170309
H -4.829890 1.832921 -0.808013
H -4.219556 2.446866 0.707194
H -2.467930 1.473264 -1.613858
H -2.791020 3.135523 -1.224069
H -1.334715 1.161973 0.616506
H -1.714471 2.807789 1.038031
H -0.356422 3.593056 -0.965156
H 0.067122 1.937464 -1.302280
H 1.143376 1.752662 0.976765
H 0.702100 3.402173 1.316595
H 2.070132 4.150534 -0.694016
H 2.567550 2.499829 -0.939257
H 4.321919 3.727952 0.359903
H 3.134617 4.169138 1.583984
H 3.606317 2.490379 1.390104
