50        
         -7.28493701
C 7.538789 -3.912073 2.254498
C 6.139987 -3.332245 2.395364
C 5.891534 -2.152097 1.454928
C 4.483931 -1.570089 1.583888
C 4.244779 -0.376146 0.659975
C 2.829626 0.191136 0.771701
C 2.596989 1.393113 -0.144130
C 1.196519 1.999267 -0.017140
C 0.082007 1.070062 -0.499809
C -1.300296 1.720106 -0.443415
C -2.417319 0.791992 -0.920301
C -3.795116 1.452746 -0.885926
C -4.917128 0.523791 -1.349162
C -6.290218 1.195529 -1.333325
C -7.418338 0.266474 -1.783914
C -8.778127 0.947321 -1.776394
H 8.301542 -3.160298 2.468073
H 7.717330 -4.270924 1.238636
H 7.706372 -4.751857 2.933424
H 5.387175 -4.110030 2.208247
H 5.965090 -3.012877 3.431806
H 6.633802 -1.366870 1.645388
H 6.067879 -2.463643 0.417760
H 4.301148 -1.273097 2.624178
H 3.741744 -2.351215 1.376818
H 4.443315 -0.668248 -0.378894
H 4.976826 0.411424 0.878530
H 2.627529 0.476070 1.811800
H 2.103459 -0.598968 0.546382
H 3.356884 2.156409 0.070434
H 2.775281 1.097896 -1.185631
H 1.011007 2.280785 1.026939
H 1.143695 2.940542 -0.580497
H 0.075352 0.149579 0.096029
H 0.293416 0.744170 -1.525944
H -1.509744 2.053419 0.580772
H -1.301073 2.636870 -1.046268
H -2.428309 -0.117846 -0.307169
H -2.199871 0.445956 -1.938569
H -4.007732 1.809272 0.129734
H -3.785150 2.356641 -1.507851
H -4.937358 -0.373498 -0.718049
H -4.698153 0.155911 -2.359390
H -6.270787 2.087642 -1.971837
H -6.504190 1.572781 -0.325443
H -7.192967 -0.117734 -2.788071
H -7.436065 -0.622167 -1.138382
H -9.577254 0.274247 -2.096702
H -8.790689 1.812066 -2.443148
H -9.033663 1.308320 -0.777920
