50
 energy: -51.637024958354 gnorm: 0.000539527691 xtb: 6.6.1 (8d0f1dd)
C            7.52214609645152       -3.88630721990390        2.24087169284788
C            6.11887159831715       -3.31164338229103        2.38758483647336
C            5.88387314105002       -2.13156402398620        1.44773499275305
C            4.47415969350064       -1.56240095410632        1.58464700767256
C            4.23707704987940       -0.37203850437858        0.65859001182972
C            2.81490036238883        0.16994298487691        0.78012879262391
C            2.57549105204436        1.35891396527878       -0.14758157975499
C            1.17897120368323        1.96570720768392       -0.00797297005937
C            0.06632943644305        1.04388318219939       -0.50222203033063
C           -1.30158245848090        1.71960367820833       -0.44688131743811
C           -2.41627456870818        0.79132516593502       -0.92264708852517
C           -3.78541263633931        1.46502184786945       -0.88279727411722
C           -4.89826854190320        0.52857616669502       -1.34680086769769
C           -6.26619213829745        1.20557177217687       -1.32639993088693
C           -7.38082798299458        0.26602002422523       -1.77988451379073
C           -8.74112253370496        0.95200458229107       -1.76836796026964
H            8.27010651054952       -3.12804098145922        2.46286586799171
H            7.68545739748602       -4.23946816700925        1.22484302944789
H            7.66788761442542       -4.72171921121259        2.92195110910730
H            5.38358363318243       -4.09176758718752        2.17632697336159
H            5.96626491533670       -2.98560879315236        3.41918877671464
H            6.61347228001330       -1.34735823763986        1.66421432113572
H            6.04414726031752       -2.45487484165575        0.41624187712683
H            4.30959629013086       -1.25185399853039        2.61944672804011
H            3.74679757039877       -2.34577889437326        1.35716528285868
H            4.41898931519326       -0.67656669505191       -0.37505733467887
H            4.95009528958391        0.42065137971053        0.89828987957243
H            2.63258064046174        0.47693188990953        1.81295367627346
H            2.11235297732981       -0.63053339525744        0.54243580120090
H            3.31657503376479        2.13083761879958        0.07573520197265
H            2.72968961518323        1.04558669179053       -1.18302332125747
H            0.99900142905138        2.22006830490309        1.03934525377039
H            1.14287120294801        2.89497748134634       -0.58255521381726
H            0.03727231747106        0.13966273213456        0.10806551230215
H            0.27837438162284        0.74403689622001       -1.53146033878675
H           -1.50714873801858        2.03444033035610        0.57916328167262
H           -1.28830244458929        2.61729948911520       -1.06995030623930
H           -2.43553318343733       -0.10125761562419       -0.29240627746888
H           -2.20390984063326        0.46754183991614       -1.94455387157622
H           -3.99489768801286        1.79746458081873        0.13687160962000
H           -3.76990283579232        2.35178285317576       -1.52118173307486
H           -4.92147060294596       -0.35197981514049       -0.69996633669979
H           -4.68091992135985        0.18529537057345       -2.36132275983815
H           -6.24504448728231        2.08092786262288       -1.98023670259276
H           -6.48055106193640        1.55612560122106       -0.31379066390598
H           -7.16278822843689       -0.09073237313400       -2.78933868431125
H           -7.40783375350817       -0.60515139081314       -1.12102558263087
H           -9.52050092564297        0.26556029167144       -2.09137242355795
H           -8.74093050482418        1.81017412572199       -2.43714871497511
H           -8.98407090769294        1.30033080476966       -0.76668539911326
