29        
         -4.17788406
C -4.742643 -0.648355 0.151437
C -3.302332 -0.789439 -0.315442
C -2.397130 0.324760 0.212382
C -0.949952 0.193762 -0.262989
C -0.041151 1.296831 0.280893
C 1.397998 1.216025 -0.236508
C 2.144604 -0.037209 0.222438
C 3.595416 -0.078762 -0.260115
C 4.325651 -1.337005 0.183010
H -5.378757 -1.451424 -0.229133
H -5.174987 0.298027 -0.180626
H -4.808226 -0.666525 1.241468
H -3.259912 -0.801617 -1.413127
H -2.897457 -1.762708 -0.006019
H -2.798154 1.300228 -0.090254
H -2.425513 0.333960 1.309254
H -0.920119 0.199081 -1.359821
H -0.561431 -0.789517 0.027948
H -0.039426 1.259951 1.377453
H -0.475730 2.273329 0.028435
H 1.961237 2.103347 0.082234
H 1.396116 1.257721 -1.332888
H 1.621454 -0.934704 -0.128390
H 2.118210 -0.101720 1.317406
H 3.615645 0.004349 -1.355363
H 4.124308 0.813672 0.101255
H 5.361251 -1.356083 -0.165477
H 3.834455 -2.234404 -0.199489
H 4.344055 -1.420555 1.271782
