29
 energy: -29.486153022909 gnorm: 0.000422189533 xtb: 6.6.1 (8d0f1dd)
C           -4.74473547438097       -0.61446386300157        0.16050322181225
C           -3.30895250224445       -0.77574790325170       -0.32374395883827
C           -2.40008390563102        0.33127643054842        0.20578611042315
C           -0.95821197032776        0.16436799314173       -0.26808482324266
C           -0.04273536750755        1.25169507549303        0.29098103380512
C            1.38630743596629        1.17749979384094       -0.24909697157748
C            2.14741210808950       -0.06046639684012        0.22052391764031
C            3.59810732159350       -0.05566005772973       -0.25613523837979
C            4.34451048141714       -1.30696794788784        0.19097214853946
H           -5.37212922829431       -1.41425897280572       -0.22639538709927
H           -5.15553003580867        0.33609156899140       -0.17296708824725
H           -4.78561339385020       -0.64139859755893        1.24734891825069
H           -3.29106444094866       -0.76515849421493       -1.41601869526653
H           -2.92366263748416       -1.74439863468467        0.00316534292621
H           -2.78161607357001        1.30012324375263       -0.12545316103056
H           -2.42371555445484        0.32391837095864        1.29823245659059
H           -0.93123149136360        0.19756108897444       -1.35996515265926
H           -0.59720889805430       -0.81702569184889        0.04388125983132
H           -0.01994606180931        1.17964274915383        1.38094630105869
H           -0.46243124674345        2.22787525080999        0.03486304004309
H            1.93002862466629        2.06746357380112        0.07835283009907
H            1.35960714186833        1.19246927012195       -1.34133462211698
H            1.65722757063493       -0.95946928011868       -0.15666105688103
H            2.12753606765609       -0.10263351626805        1.31222602780605
H            3.61847050189190        0.00805783728178       -1.34660349244387
H            4.10560099058529        0.82893997381021        0.13565217313616
H            5.37380168648068       -1.28645295993838       -0.15976075940619
H            3.86464533472678       -2.19911192697843       -0.20599532340335
H            4.35308592835799       -1.37874976216320        1.27653878839450
