  41
         -5.95268874
 C          7.0393284415       -0.6305034183        0.1142897917
 C          5.5907319307       -0.7856653139       -0.3219670333
 C          4.6977598303        0.3508258811        0.1783283487
 C          3.2405254939        0.2059654111       -0.2613716596
 C          2.3567461494        1.3582411589        0.2179779865
 C          0.9103207215        1.2682476353       -0.2776133045
 C          0.1304860437        0.0946785865        0.3162422496
 C         -1.3143930126        0.0300599958       -0.1793126421
 C         -2.0980811476       -1.1390930409        0.4185366249
 C         -3.5171687830       -1.2758254562       -0.1409719897
 C         -4.4345525278       -0.1056938592        0.2161179875
 C         -5.8563480382       -0.2789757482       -0.3211144094
 C         -6.7659495471        0.8876279934        0.0307117582
 H          7.6705717453       -1.4421453832       -0.2563910966
 H          7.1251665471       -0.6190837495        1.2030133504
 H          7.4632784697        0.3076406859       -0.2507191345
 H          5.5295951819       -0.8392112212       -1.4175813454
 H          5.1894355504       -1.7457125822        0.0304843466
 H          5.0947652732        1.3112886505       -0.1736037436
 H          4.7492531790        0.4067947416        1.2728829141
 H          2.8438554354       -0.7491868611        0.1025520266
 H          3.1921827827        0.1372104823       -1.3552420407
 H          2.8048926134        2.3071586139       -0.1056649717
 H          2.3681932006        1.3973694167        1.3143063221
 H          0.9027453114        1.1949002557       -1.3722650017
 H          0.3766188760        2.2009139961       -0.0509594483
 H          0.1425329248        0.1607570298        1.4112410545
 H          0.6369062183       -0.8489837824        0.0816541076
 H         -1.8194844454        0.9762680512        0.0484101915
 H         -1.3242975668       -0.0424226223       -1.2740064513
 H         -2.1413859602       -1.0302996488        1.5094542834
 H         -1.5376179242       -2.0677862202        0.2470972963
 H         -3.4710845468       -1.3824125846       -1.2320402863
 H         -3.9734156249       -2.2081225752        0.2180873248
 H         -4.0140786318        0.8314473290       -0.1674309086
 H         -4.4644652771        0.0206171437        1.3054972823
 H         -6.2778418858       -1.2172329570        0.0637965723
 H         -5.8176597092       -0.4122473970       -1.4106629009
 H         -6.8488076838        1.0106500713        1.1122364169
 H         -6.3781501449        1.8263013282       -0.3695099003
 H         -7.7762828530        0.7551798608       -0.3637243534
