23        
         -3.28966385
C -3.067732 -0.767841 -0.500605
C -1.858797 -0.373006 0.333647
C -1.129379 0.848707 -0.228051
C 0.053310 1.309310 0.629933
C 1.174916 0.275039 0.769343
C 1.834461 -0.100394 -0.558682
C 2.998000 -1.064092 -0.383749
H -2.777431 -1.013603 -1.524440
H -3.585827 -1.637239 -0.088144
H -3.791681 0.047981 -0.559409
H -2.163436 -0.168783 1.368851
H -1.162592 -1.219050 0.403484
H -0.790414 0.633628 -1.248519
H -1.849063 1.670761 -0.341089
H -0.317420 1.587157 1.625507
H 0.473421 2.233761 0.212113
H 0.791407 -0.630427 1.254455
H 1.945675 0.652751 1.454451
H 1.085995 -0.538459 -1.231282
H 2.173023 0.812710 -1.066115
H 3.783364 -0.627138 0.236846
H 3.450697 -1.340032 -1.339536
H 2.677314 -1.986079 0.105933
