23
 energy: -23.156485190986 gnorm: 0.000123465237 xtb: 6.6.1 (8d0f1dd)
C           -3.11416752710302       -0.71915058232644       -0.48676708357207
C           -1.86324920009050       -0.39252350213808        0.32024201203646
C           -1.13222458288477        0.82313077188060       -0.24490702688902
C            0.05203644740411        1.27705914636148        0.61018813859697
C            1.17616025911640        0.25022129895284        0.75781774493069
C            1.83964072571859       -0.12342069949242       -0.56579257598108
C            3.04554713139399       -1.03049175653073       -0.35189874903411
H           -2.85486454162278       -0.93225174455690       -1.52182515858630
H           -3.62101625890877       -1.58873095210923       -0.07438820998345
H           -3.80732565945946        0.11949714235011       -0.47507994498493
H           -2.14208518956829       -0.19454604227470        1.35800077807212
H           -1.20044734913771       -1.25922623553095        0.31232991294855
H           -0.79349798546900        0.60316587615301       -1.25880193952616
H           -1.83929409964304        1.65432503590700       -0.31330814451136
H           -0.31536998986402        1.53294570414553        1.60753139679325
H            0.46703846307100        2.18760471042690        0.16990080008776
H            0.79302400942765       -0.65152684174784        1.23861717066679
H            1.93571227207031        0.67263301573305        1.42125401297196
H            1.12130264398725       -0.63516107362329       -1.20813868761569
H            2.15710877129811        0.78755645020661       -1.07884745411580
H            3.78807120236807       -0.53901392977436        0.27340162491824
H            3.51022674753889       -1.28191751221692       -1.30265783999139
H            2.74547505322676       -1.95451718469921        0.13807383852660
