38        
         -5.50865311
C 2.800326 2.710213 -0.714543
C 2.763598 1.625144 0.350114
C 2.344137 0.265066 -0.209078
C 2.251695 -0.819474 0.864504
C 1.805973 -2.182584 0.325419
C 0.414335 -2.178112 -0.315608
C -0.700632 -1.775217 0.649695
C -2.094744 -1.788742 0.016382
C -2.268734 -0.799245 -1.141595
C -1.957254 0.656736 -0.781528
C -2.848072 1.224468 0.323763
C -2.529906 2.677547 0.640057
H 1.820128 2.842078 -1.178043
H 3.501220 2.457041 -1.512764
H 3.102615 3.677479 -0.305806
H 3.745440 1.532832 0.834079
H 2.075510 1.912352 1.157010
H 3.045939 -0.047715 -0.992245
H 1.380078 0.370247 -0.719149
H 3.226172 -0.913268 1.362394
H 1.566863 -0.490048 1.654964
H 2.546948 -2.537136 -0.403264
H 1.822264 -2.922993 1.136159
H 0.187900 -3.170243 -0.728668
H 0.412235 -1.508312 -1.182772
H -0.676699 -2.443104 1.521240
H -0.496318 -0.778342 1.056083
H -2.850635 -1.582044 0.785159
H -2.318618 -2.806063 -0.331394
H -3.296647 -0.859085 -1.523742
H -1.637663 -1.112533 -1.983415
H -0.907260 0.751011 -0.481832
H -2.048902 1.290037 -1.674271
H -2.744045 0.614993 1.230940
H -3.901555 1.120802 0.030534
H -2.659293 3.311537 -0.239576
H -1.494722 2.792118 0.968540
H -3.171224 3.076826 1.429483
