38
 energy: -38.976433055435 gnorm: 0.000194715051 xtb: 6.6.1 (8d0f1dd)
C            3.02337686471687        2.71142237208600       -0.65184346832393
C            2.94183614907094        1.60386891751657        0.39163815817272
C            2.37284454671509        0.31344881570369       -0.19347423792469
C            2.26298285606364       -0.78840473051164        0.85779198464329
C            1.78888394251622       -2.12945837234732        0.29325015494848
C            0.39803411658796       -2.10258607248530       -0.34335855411032
C           -0.70659360155988       -1.74793502219694        0.64888370556622
C           -2.10869117767718       -1.82402202524133        0.04330082339793
C           -2.36343612130099       -0.85318596452182       -1.11339447532915
C           -2.07957967241068        0.61688407704958       -0.80139792491381
C           -2.92538027798067        1.17873386361796        0.33857776857693
C           -2.65880232719580        2.66465643110899        0.54821339754147
H            2.03392159913137        2.94406151522950       -1.04042009339660
H            3.65305217173054        2.40468982029901       -1.48438474511776
H            3.44328222274345        3.61678933220573       -0.21947332839520
H            3.93855937130731        1.41026073462904        0.79492546457783
H            2.30981527481761        1.93265281404329        1.22037900470255
H            3.01481089446850       -0.02763972629710       -1.00938353746684
H            1.38837030747607        0.52600533790234       -0.61374836258392
H            3.24686578742209       -0.93847339533866        1.31049115433278
H            1.58981843698135       -0.46377604918813        1.65334872976077
H            2.50788953254795       -2.46559763808600       -0.45844674435781
H            1.79156400866911       -2.86478116338284        1.10224723156201
H            0.19137918210204       -3.09224631948624       -0.75969742175684
H            0.39534644172993       -1.39465106228592       -1.17182375883425
H           -0.65727618470109       -2.44335320180951        1.49132669868978
H           -0.54135063356414       -0.74614463860591        1.04403646508016
H           -2.83914869929548       -1.63746566824196        0.83343102078816
H           -2.28166927571690       -2.83954412016842       -0.32301171596613
H           -3.41011677742641       -0.95220732697947       -1.41331840790843
H           -1.75388842395562       -1.14903142910624       -1.96989314182909
H           -1.02321610221523        0.74673207150045       -0.55989433689019
H           -2.27753733944098        1.20095506948456       -1.70449003515526
H           -2.70174500387320        0.64414357976851        1.26313683918857
H           -3.98344265089808        1.02614284786538        0.11301553647599
H           -2.90806359844358        3.22901841613061       -0.34806904003369
H           -1.60812220756930        2.83413905897593        0.77586913533927
H           -3.25409895940862        3.05016460470415        1.37287800195330
