  14
  -1.95933480000000       6.292795512193669E-002 !mtd5
 C         -1.9449944081        0.1312067479        0.0007983729
 C         -0.5675842226       -0.5133747009       -0.0008376510
 C          0.5674393958        0.5131367932       -0.0008335831
 C          1.9450972793       -0.1310424711        0.0007766871
 H         -2.0857571500        0.7637295626       -0.8782681648
 H         -2.7466047251       -0.6112664156        0.0025074179
 H         -2.0831814951        0.7660158775        0.8783562005
 H         -0.4582859093       -1.1743683271        0.8697436992
 H         -0.4592728555       -1.1737193786       -0.8720754065
 H          0.4579976915        1.1740248533        0.8697890952
 H          0.4591055188        1.1735832115       -0.8720103050
 H          2.0842727996       -0.7636008701        0.8797966375
 H          2.0857606139       -0.7652651558       -0.8769513857
 H          2.7464654904        0.6117440916        0.0002583040
  14
  -1.95933433000000       6.289666558590697E-002 !mtd2
 C         -1.9449718138        0.1310828815       -0.0008987904
 C         -0.5675217053       -0.5132896617        0.0009696400
 C          0.5675195844        0.5132974639        0.0009742781
 C          1.9450815317       -0.1311811476       -0.0009204758
 H         -2.0864306396        0.7591484564       -0.8831326196
 H         -2.7468275677       -0.6113829921        0.0041224920
 H         -2.0837949746        0.7709157893        0.8731964848
 H         -0.4595897691       -1.1732587741        0.8725111657
 H         -0.4581141084       -1.1747690486       -0.8692595493
 H          0.4592791915        1.1728772221        0.8728224176
 H          0.4580903362        1.1751679950       -0.8689307970
 H          2.0851489161       -0.7622951528       -0.8810594126
 H          2.7466842994        0.6115338120        0.0021633817
 H          2.0842720985       -0.7668592623        0.8760809780
  14
  -1.95933413000000       6.288335560900461E-002 !mtd5
 C         -1.9451359131        0.1312710104       -0.0001374868
 C         -0.5672038785       -0.5133235040        0.0003145861
 C          0.5672375567        0.5132800336        0.0003190425
 C          1.9449610732       -0.1311590629       -0.0001593440
 H         -2.0861488268        0.7641436327        0.8785318785
 H         -2.0832684892        0.7653794244       -0.8784215460
 H         -2.7463710066       -0.6120016521       -0.0028110436
 H         -0.4586022915       -1.1742997831        0.8713494859
 H         -0.4581623675       -1.1737631075       -0.8709683511
 H          0.4587004998        1.1738656276        0.8711444632
 H          0.4581611642        1.1733470601       -0.8707788730
 H          2.7465515036        0.6119644021       -0.0014026036
 H          2.0857910311       -0.7648390127        0.8786906914
 H          2.0850309861       -0.7646126214       -0.8793476735
  14
  -1.95933310000000       6.281485381943648E-002 !mtd3
 C         -1.9450517835        0.1311601513       -0.0032875095
 C         -0.5674950196       -0.5133072081        0.0035846694
 C          0.5674391148        0.5132046422        0.0035915780
 C          1.9451006630       -0.1311168797       -0.0033095423
 H         -2.0852386672        0.7545751135       -0.8890053587
 H         -2.7467864278       -0.6114637229        0.0054551555
 H         -2.0849355819        0.7751044583        0.8676512456
 H         -0.4613464668       -1.1709839397        0.8770655310
 H         -0.4562334123       -1.1769348453       -0.8647827239
 H          0.4614349552        1.1707293595        0.8772663019
 H          0.4560445091        1.1770580922       -0.8645820314
 H          2.7466309425        0.6117003021        0.0011585099
 H          2.0864221453       -0.7715335951        0.8698643941
 H          2.0840917229       -0.7575446204       -0.8869932146
  14
  -1.95933271000000       6.278893572977602E-002 !mtd5
 C         -1.9453005496        0.1311246981        0.0044686329
 C         -0.5673385939       -0.5131624843       -0.0048698124
 C          0.5673232772        0.5133281679       -0.0048697092
 C          1.9453051288       -0.1312485374        0.0044475151
 H         -2.0806883530        0.7627115569        0.8851235319
 H         -2.0906675679        0.7663853032       -0.8716819617
 H         -2.7465970764       -0.6118083369        0.0075781376
 H         -0.4548224365       -1.1770359504        0.8631758413
 H         -0.4624071640       -1.1701450026       -0.8791373280
 H          0.4550549694        1.1774981750        0.8628777288
 H          0.4621625754        1.1702176168       -0.8791011300
 H          2.0833452017       -0.7561983612        0.8892145640
 H          2.0878551215       -0.7734049143       -0.8672954484
 H          2.7468926869        0.6112812614       -0.0009419101
  14
  -1.95933259000000       6.278096308464066E-002 !mtd6
 C         -1.9449542066        0.1312628184        0.0021791207
 C         -0.5676075768       -0.5134306298       -0.0023716305
 C          0.5675079899        0.5130788707       -0.0023682975
 C          1.9450442994       -0.1309552850        0.0021574402
 H         -2.0788242576        0.7716181918        0.8765372479
 H         -2.0907143904        0.7579426347       -0.8801718373
 H         -2.7467253653       -0.6114633210        0.0140328416
 H         -0.4570185490       -1.1759237703        0.8669110348
 H         -0.4609371922       -1.1723656741       -0.8748875257
 H          0.4569930668        1.1751544188        0.8670468309
 H          0.4604822148        1.1722516664       -0.8744484862
 H          2.0896955169       -0.7609151083       -0.8783176216
 H          2.7462730549        0.6123981601        0.0093119322
 H          2.0808890412       -0.7681701670        0.8787924518
  14
  -1.95932939000000       6.256873224586157E-002 !mtd6
 C         -1.9450331336        0.1311473835        0.0064090751
 C         -0.5674819531       -0.5133108349       -0.0069325976
 C          0.5674620105        0.5132498843       -0.0069334824
 C          1.9450376870       -0.1311358115        0.0063879958
 H         -2.7465525324       -0.6112998778       -0.0050471248
 H         -2.0838583039        0.7490587006        0.8961327942
 H         -2.0866482032        0.7801977122       -0.8604937933
 H         -0.4535426876       -1.1800022950        0.8587156513
 H         -0.4640265330       -1.1677653001       -0.8832556844
 H          0.4537540202        1.1797227914        0.8589464419
 H          0.4640453745        1.1680835830       -0.8829326783
 H          2.0819562224       -0.7526485016        0.8940894169
 H          2.0885925053       -0.7766841331       -0.8629252125
 H          2.7464635286        0.6119257582       -0.0004905827
  14
  -1.95932918000000       6.255482970959510E-002 !mtd3
 C         -1.9450072289        0.1311163047       -0.0069141111
 C         -0.5674740928       -0.5132538935        0.0075165735
 C          0.5675239683        0.5132439050        0.0075261166
 C          1.9449465243       -0.1311263692       -0.0069365199
 H         -2.7462077526       -0.6115303037       -0.0010490448
 H         -2.0891121487        0.7764641169        0.8619027299
 H         -2.0814556645        0.7527910269       -0.8941891720
 H         -0.4644465310       -1.1673354832        0.8842691539
 H         -0.4532262740       -1.1804956648       -0.8578134713
 H          0.4644806774        1.1678861256        0.8837156130
 H          0.4534014434        1.1799302985       -0.8580971805
 H          2.7465993298        0.6119143770        0.0021523707
 H          2.0881121708       -0.7786109455        0.8610101186
 H          2.0819837975       -0.7507745778       -0.8961067156
  14
  -1.95861336000000       2.932869581465610E-002 !mtd5
 C         -1.5635433854        0.0313020609        0.5670575915
 C         -0.6779509466       -0.3581516242       -0.6069552198
 C          0.6779713491        0.3572468565       -0.6073985153
 C          1.5635598014       -0.0304458250        0.5670961475
 H         -2.5391044841       -0.4596547311        0.5253071722
 H         -1.1076262791       -0.2387086237        1.5214015350
 H         -1.7407849789        1.1087132400        0.5875325085
 H         -0.5127774312       -1.4440948450       -0.6064899872
 H         -1.2056573328       -0.1510337381       -1.5491926210
 H          0.5126023031        1.4431922532       -0.6081710873
 H          1.2058816299        0.1490591701       -1.5492488641
 H          1.7416372313       -1.1077260998        0.5888632695
 H          2.5387492417        0.4613509226        0.5246689738
 H          1.1066413399        0.2394807971        1.5210609725
  14
  -1.95861318000000       2.932310996122406E-002 !mtd1
 C         -1.5640114990        0.0314665101        0.5667091864
 C         -0.6775694552       -0.3584324103       -0.6065622365
 C          0.6778473562        0.3576272805       -0.6070055028
 C          1.5638595860       -0.0306594704        0.5667475986
 H         -1.1100452010       -0.2407108442        1.5213429945
 H         -1.7392620284        1.1091202865        0.5883054520
 H         -2.5409468419       -0.4565101181        0.5230526723
 H         -0.5119579148       -1.4443849836       -0.6053051504
 H         -1.2050214957       -0.1525351373       -1.5491845928
 H          0.5120886336        1.4435660724       -0.6068147554
 H          1.2054956487        0.1498491195       -1.5491374282
 H          1.7400801094       -1.1083211770        0.5887382664
 H          2.5398738339        0.4595167952        0.5226802087
 H          1.1081938752        0.2403872263        1.5209931054
  14
  -1.95861316000000       2.932248937652091E-002 !mtd4
 C         -1.5635647387        0.0312643547        0.5671479312
 C         -0.6780290301       -0.3580438648       -0.6070658876
 C          0.6780421559        0.3569520151       -0.6075088724
 C          1.5635563076       -0.0303279877        0.5671863764
 H         -1.1110127918       -0.2454187180        1.5209754278
 H         -1.7344882235        1.1093531114        0.5925552914
 H         -2.5418899899       -0.4532897174        0.5212260077
 H         -0.5130310674       -1.4440700146       -0.6065746168
 H         -1.2057396394       -0.1497917851       -1.5489708972
 H          0.5131229627        1.4429862990       -0.6090124655
 H          1.2059606114        0.1481461562       -1.5492477336
 H          1.1085101223        0.2436896009        1.5207426706
 H          1.7383382835       -1.1079345453        0.5916932976
 H          2.5401737868        0.4581824774        0.5228270020
  14
  -1.95861313000000       2.932155852408517E-002 !mtd6
 C         -1.5639123354        0.0315105877       -0.5667073110
 C         -0.6777208239       -0.3585815581        0.6065445391
 C          0.6776718877        0.3576215144        0.6069929123
 C          1.5639370538       -0.0306621047       -0.5667794004
 H         -1.1097689086       -0.2402712427       -1.5218194664
 H         -2.5407787005       -0.4572612293       -0.5227817953
 H         -1.7384824703        1.1097131922       -0.5874063587
 H         -1.2053420236       -0.1528969608        1.5490217689
 H         -0.5116728958       -1.4443321696        0.6050879115
 H          1.2052930068        0.1508102059        1.5494971643
 H          0.5114889520        1.4435849107        0.6070707026
 H          2.5406505468        0.4581596547       -0.5224610191
 H          1.7390549151       -1.1083823191       -0.5889367457
 H          1.1098461799        0.2422054111       -1.5212253702
  14
  -1.95861297000000       2.931659447681118E-002 !mtd1
 C         -1.5637121066        0.0313336082        0.5669618474
 C         -0.6779096550       -0.3581995330       -0.6068702922
 C          0.6779051238        0.3571652824       -0.6073132937
 C          1.5637003062       -0.0304536779        0.5670003259
 H         -1.7361344532        1.1094922518        0.5911798244
 H         -2.5414144880       -0.4555513893        0.5223175087
 H         -1.1101334335       -0.2435569746        1.5212116557
 H         -0.5128427894       -1.4442832525       -0.6065188624
 H         -1.2055368856       -0.1511516860       -1.5492445871
 H          0.5126493052        1.4431909075       -0.6084735092
 H          1.2058951920        0.1496804066       -1.5493022805
 H          2.5373563487        0.4645433219        0.5267527548
 H          1.1057874333        0.2367676210        1.5211984646
 H          1.7445683916       -1.1072921936        0.5868661188
  14
  -1.95861277000000       2.931039059951965E-002 !mtd4
 C         -1.5651155760        0.0317793625       -0.5660651871
 C         -0.6774858904       -0.3590345569        0.6058819926
 C          0.6774656897        0.3581800392        0.6063296705
 C          1.5651211045       -0.0309658066       -0.5661371905
 H         -2.5393123272       -0.4621938638       -0.5249349491
 H         -1.7450211861        1.1089022614       -0.5829754420
 H         -1.1091134300       -0.2336903204       -1.5217676830
 H         -1.2045362352       -0.1547124729        1.5490668765
 H         -0.5106833242       -1.4447578839        0.6030092572
 H          1.2045962283        0.1524636035        1.5491762858
 H          0.5106595719        1.4439030289        0.6050590588
 H          1.1081773555        0.2336319679       -1.5214938131
 H          2.5384263975        0.4645955472       -0.5254035239
 H          1.7469817955       -1.1076537319       -0.5831952683
  14
  -1.95861259000000       2.930480823244273E-002 !mtd2
 C         -1.5641679633        0.0317403269        0.5663450741
 C         -0.6776903722       -0.3590032881       -0.6061542554
 C          0.6777004854        0.3578696713       -0.6065962950
 C          1.5641705152       -0.0306612985        0.5663833511
 H         -1.7376259411        1.1092845245        0.5881072645
 H         -2.5414691677       -0.4558072959        0.5229694037
 H         -1.1105297364       -0.2411845440        1.5207469635
 H         -0.5119555862       -1.4448215012       -0.6039852212
 H         -1.2050178058       -0.1536467649       -1.5490435868
 H          0.5116027626        1.4434044725       -0.6064897637
 H          1.2043319027        0.1507416391       -1.5491925382
 H          1.7429773044       -1.1075959753        0.5858992355
 H          2.5388976990        0.4624526704        0.5235657563
 H          1.1086376416        0.2378232962        1.5210346963
  14
  -1.95861247000000       2.930108724507320E-002 !mtd4
 C         -1.5633637815        0.0311442392       -0.5672504225
 C         -0.6778950105       -0.3580062218        0.6071890153
 C          0.6779234120        0.3574268723        0.6076367888
 C          1.5633546286       -0.0306151972       -0.5673223009
 H         -2.5373134781       -0.4636202662       -0.5277678012
 H         -1.7440862259        1.1080013519       -0.5859125716
 H         -1.1053113675       -0.2356684331       -1.5214716916
 H         -1.2059979716       -0.1504730873        1.5491006562
 H         -0.5122186692       -1.4440127053        0.6070895932
 H          1.2058464122        0.1484422387        1.5493390340
 H          0.5128488450        1.4434197280        0.6091463493
 H          1.7323380942       -1.1090901725       -0.5953210609
 H          1.1114523704        0.2502013574       -1.5202971983
 H          2.5422126071        0.4533994950       -0.5202697823
  14
  -1.95861245000000       2.930046712644472E-002 !mtd2
 C         -1.5654188298        0.0320035214       -0.5656685352
 C         -0.6773220478       -0.3595769099        0.6054840540
 C          0.6770785575        0.3587405951        0.6059313507
 C          1.5654762393       -0.0312532054       -0.5657403673
 H         -1.7434447669        1.1094415207       -0.5823956483
 H         -1.1105666383       -0.2340913793       -1.5216196879
 H         -2.5401521717       -0.4607571891       -0.5233303072
 H         -1.2038391778       -0.1573049934        1.5494897017
 H         -0.5094563041       -1.4452461944        0.6007029704
 H          1.2036973512        0.1547574842        1.5494736843
 H          0.5098538733        1.4444980492        0.6034384457
 H          1.1134519262        0.2396074193       -1.5215431404
 H          2.5412391084        0.4589003836       -0.5207853756
 H          1.7414342984       -1.1087802666       -0.5868566751
  14
  -1.95861239000000       2.929860684931586E-002 !mtd5
 C         -1.5637960143        0.0314058921        0.5669865448
 C         -0.6780124894       -0.3581438195       -0.6068186040
 C          0.6779241888        0.3571074149       -0.6072612931
 C          1.5638391958       -0.0303311063        0.5670249906
 H         -1.1124286670       -0.2484356375        1.5206280173
 H         -1.7331566387        1.1097830132        0.5932766124
 H         -2.5425059664       -0.4526180229        0.5198217386
 H         -0.5131756882       -1.4442220971       -0.6067013116
 H         -1.2054046177       -0.1513865305       -1.5491764178
 H          0.5127203160        1.4430542549       -0.6089203375
 H          1.2058047307        0.1486079193       -1.5490095598
 H          2.5388759316        0.4623518822        0.5244421257
 H          1.1070511717        0.2402853172        1.5212657261
 H          1.7427571069       -1.1078774813        0.5885366102
  14
  -1.95861228000000       2.929519664798656E-002 !mtd2
 C         -1.5639920382        0.0315285902       -0.5667769991
 C         -0.6778678182       -0.3585968276        0.6066939445
 C          0.6779374675        0.3572805298        0.6071432457
 C          1.5639519964       -0.0304466066       -0.5668494219
 H         -2.5428127324       -0.4516558119       -0.5204849164
 H         -1.7318472811        1.1097449107       -0.5929265797
 H         -1.1129351732       -0.2469896357       -1.5206739533
 H         -1.2053931952       -0.1514831061        1.5490276570
 H         -0.5130654464       -1.4445924923        0.6062584816
 H          1.2057512968        0.1504876117        1.5494007178
 H          0.5115809809        1.4431039978        0.6073626823
 H          2.5384232135        0.4628643305       -0.5254819432
 H          1.7429606132       -1.1075281905       -0.5874462426
 H          1.1069848958        0.2388406742       -1.5208961562
  14
  -1.95861216000000       2.929147688104416E-002 !mtd3
 C         -1.5660649528        0.0322900763        0.5653413069
 C         -0.6769484349       -0.3600493652       -0.6051026055
 C          0.6770133292        0.3590589334       -0.6055443256
 C          1.5660831055       -0.0313976807        0.5653795825
 H         -2.5410005318       -0.4592872506        0.5215605102
 H         -1.1130094147       -0.2345785961        1.5218844778
 H         -1.7432775060        1.1097290305        0.5825692160
 H         -0.5088257280       -1.4455956983       -0.6001749126
 H         -1.2035570485       -0.1581193596       -1.5491482942
 H          0.5084799337        1.4446075237       -0.6015597772
 H          1.2035389030        0.1564115143       -1.5495136725
 H          2.5393924811        0.4642454440        0.5241714577
 H          1.1102450837        0.2320612324        1.5216902429
 H          1.7470241684       -1.1083055574        0.5809879482
  14
  -1.95861200000000       2.928651792650423E-002 !mtd1
 C         -1.5661000861        0.0322666957        0.5653748146
 C         -0.6770509845       -0.3600166205       -0.6051226606
 C          0.6771023921        0.3590993522       -0.6055645129
 C          1.5660815319       -0.0313749993        0.5654131157
 H         -2.5421234733       -0.4570724840        0.5207302231
 H         -1.1135902817       -0.2369922404        1.5213813395
 H         -1.7407981174        1.1098685150        0.5844926083
 H         -0.5091635380       -1.4456643220       -0.5999640097
 H         -1.2036032492       -0.1583500798       -1.5492770919
 H          0.5085604666        1.4446565619       -0.6017499100
 H          1.2035148007        0.1562897862       -1.5495561761
 H          1.1111630283        0.2349393709        1.5212141791
 H          1.7448974108       -1.1086604000        0.5820513202
 H          2.5407514432        0.4612900292        0.5228253600
  14
  -1.95861174000000       2.927846141588173E-002 !mtd1
 C         -1.5608110971        0.0302084001       -0.5689063032
 C         -0.6790327221       -0.3560019303        0.6089079040
 C          0.6790555723        0.3550865856        0.6093579013
 C          1.5608385255       -0.0293427441       -0.5689785673
 H         -1.1074627399       -0.2539052393       -1.5204551226
 H         -2.5404750203       -0.4518151790       -0.5223828167
 H         -1.7285545549        1.1086596237       -0.5998322524
 H         -1.2081919423       -0.1423283804        1.5488334869
 H         -0.5176182738       -1.4425083329        0.6141720938
 H          1.2080962520        0.1409151330        1.5493258869
 H          0.5171978032        1.4416184659        0.6154853322
 H          1.7266736963       -1.1081388876       -0.6024587527
 H          1.1083181270        0.2575519130       -1.5198170695
 H          2.5414174899        0.4505430161       -0.5207588768
  14
  -1.95861028000000       2.923326215791398E-002 !mtd5
 C         -1.5675626123        0.0326908134       -0.5644894232
 C         -0.6765460726       -0.3608315685        0.6042292428
 C          0.6766716689        0.3599546476        0.6046757453
 C          1.5674071380       -0.0318730756       -0.5645614455
 H         -1.7494838211        1.1093827462       -0.5763537878
 H         -1.1126752535       -0.2265970695       -1.5222093164
 H         -2.5403844002       -0.4636038453       -0.5237485687
 H         -1.2025946577       -0.1619561969        1.5491350799
 H         -0.5070155684       -1.4460925717        0.5968064609
 H          1.2024334437        0.1594187095        1.5493807034
 H          0.5065519125        1.4451351871        0.5983512106
 H          2.5385381003        0.4683928208       -0.5254940638
 H          1.7541893093       -1.1079591395       -0.5751031820
 H          1.1107969866        0.2245846358       -1.5223746436
  14
  -1.95860992000000       2.922212786345566E-002 !mtd2
 C         -1.5633598498        0.0307048099       -0.5673010977
 C         -0.6781521397       -0.3571279192        0.6072485055
 C          0.6785316264        0.3569926681        0.6076952225
 C          1.5630911222       -0.0304253071       -0.5673729133
 H         -1.7464973437        1.1063321745       -0.5845570156
 H         -1.1042814614       -0.2331748326       -1.5209886388
 H         -2.5357968873       -0.4659864633       -0.5298488261
 H         -1.2061771665       -0.1491248728        1.5488481302
 H         -0.5132852958       -1.4429654006        0.6076454569
 H          1.2062660874        0.1468761287        1.5489502104
 H          0.5149066887        1.4429464570        0.6100926124
 H          1.7273330101       -1.1095461891       -0.5992271614
 H          1.1122279256        0.2533252356       -1.5200475589
 H          2.5439845429        0.4495987366       -0.5174299349
  14
  -1.95860430000000       2.904885799496204E-002 !mtd1
 C         -1.5710695103        0.0337728016        0.5622915603
 C         -0.6756246977       -0.3628734518       -0.6017691790
 C          0.6755744315        0.3621076512       -0.6022089482
 C          1.5711494436       -0.0330363858        0.5623296879
 H         -1.7595322071        1.1093428220        0.5665174801
 H         -2.5411478222       -0.4679260222        0.5221587093
 H         -1.1171365695       -0.2174720642        1.5225166106
 H         -0.5022175824       -1.4474992266       -0.5881732080
 H         -1.1996107415       -0.1702927807       -1.5491372072
 H          0.5024348131        1.4467241018       -0.5909061103
 H          1.1995883808        0.1678681748       -1.5492082127
 H          1.1131200162        0.2124014528        1.5222426923
 H          1.7659190990       -1.1076340358        0.5633873689
 H          2.5382290750        0.4748377529        0.5262864423
