  14
         -1.95933480
 C         -1.9449944081        0.1312067479        0.0007983729
 C         -0.5675842226       -0.5133747009       -0.0008376510
 C          0.5674393958        0.5131367932       -0.0008335831
 C          1.9450972793       -0.1310424711        0.0007766871
 H         -2.0857571500        0.7637295626       -0.8782681648
 H         -2.7466047251       -0.6112664156        0.0025074179
 H         -2.0831814951        0.7660158775        0.8783562005
 H         -0.4582859093       -1.1743683271        0.8697436992
 H         -0.4592728555       -1.1737193786       -0.8720754065
 H          0.4579976915        1.1740248533        0.8697890952
 H          0.4591055188        1.1735832115       -0.8720103050
 H          2.0842727996       -0.7636008701        0.8797966375
 H          2.0857606139       -0.7652651558       -0.8769513857
 H          2.7464654904        0.6117440916        0.0002583040
  14
         -1.95861336
 C         -1.5635433854        0.0313020609        0.5670575915
 C         -0.6779509466       -0.3581516242       -0.6069552198
 C          0.6779713491        0.3572468565       -0.6073985153
 C          1.5635598014       -0.0304458250        0.5670961475
 H         -2.5391044841       -0.4596547311        0.5253071722
 H         -1.1076262791       -0.2387086237        1.5214015350
 H         -1.7407849789        1.1087132400        0.5875325085
 H         -0.5127774312       -1.4440948450       -0.6064899872
 H         -1.2056573328       -0.1510337381       -1.5491926210
 H          0.5126023031        1.4431922532       -0.6081710873
 H          1.2058816299        0.1490591701       -1.5492488641
 H          1.7416372313       -1.1077260998        0.5888632695
 H          2.5387492417        0.4613509226        0.5246689738
 H          1.1066413399        0.2394807971        1.5210609725
