44
 energy: -45.305735630093 gnorm: 0.000352838562 xtb: 6.6.1 (8d0f1dd)
C            2.00122431062689        3.38722139377644        0.49586889166554
C            2.93455179451712        2.25570954944784        0.08147782225997
C            2.19159285656199        0.92721826523405       -0.03221855731854
C            3.11043908538747       -0.21850685416601       -0.45484323495919
C            2.34918349043804       -1.52199664925951       -0.70382507370770
C            1.86881243406357       -2.18262139346406        0.58751024183509
C            0.90480440793471       -3.34910412432802        0.35928642818731
C           -0.38233197684445       -2.98236214780783       -0.38597674547717
C           -1.13091279338085       -1.80501866583658        0.23461472570346
C           -2.42684430250559       -1.49758851691243       -0.51191211754291
C           -3.17304698974325       -0.28790679799301        0.05382654779885
C           -2.42282202455709        1.02900879327845       -0.13984322959686
C           -3.25773178826879        2.23531129026375        0.28329704413617
C           -2.48325712290037        3.53845031901667        0.12414664923518
H            1.55560674355192        3.17769153840150        1.46631565050138
H            2.54283072453021        4.32778460064745        0.56393035648821
H            1.19927729005613        3.50447290142031       -0.23022970646297
H            3.73838559066027        2.15912430738548        0.81499844495046
H            3.39255584814546        2.49717699750691       -0.88055751671113
H            1.73317600240435        0.69974694669252        0.93228279795453
H            1.38793561474455        1.03094277636587       -0.76620126761921
H            3.87227408004794       -0.37867568776572        0.31159931437807
H            3.62439854120446        0.07112431031596       -1.37489395387927
H            2.99464759459305       -2.22270938418237       -1.23899447515378
H            1.49759049198375       -1.30183865363129       -1.34847075305918
H            1.38238035458144       -1.44256080209459        1.22231106930624
H            2.73793979973814       -2.55443843683340        1.13677965934385
H            0.63888338231452       -3.76431378160944        1.33483835661409
H            1.41792785594261       -4.13349131173932       -0.20278600110153
H           -1.03535393248918       -3.85903175576294       -0.39324512368066
H           -0.15083805356000       -2.74858786477559       -1.42712182136465
H           -0.49309965150977       -0.92320712952633        0.20562385753348
H           -1.35688052930291       -2.02666450997162        1.28034850751549
H           -2.19843667492824       -1.31422741781933       -1.56509168941241
H           -3.08206738141223       -2.37127183053439       -0.46602143844274
H           -3.36177913359665       -0.44414562703183        1.11868620242019
H           -4.14333206745869       -0.21322417441836       -0.44414987715630
H           -1.50126714331046        1.02126921584461        0.44469915803876
H           -2.14886400122744        1.13500639979940       -1.19258373718988
H           -4.16746151441169        2.27690604090224       -0.32050100565702
H           -3.55941638892061        2.11739606724820        1.32675302999770
H           -1.58926147955443        3.52904838147831        0.74441472130462
H           -2.17883509400096        3.67613742569405       -0.91147856486581
H           -3.09510883814211        4.38848533099587        0.41712583207378
