  35
         -5.06626391
 C         -6.3610076547       -0.3939515143       -0.0038186756
 C         -5.1024313885        0.4589241864        0.0349774582
 C         -3.8219838868       -0.3757862486       -0.0158378684
 C         -2.5506088383        0.4728255395        0.0065373481
 C         -1.2742375923       -0.3680008027       -0.0163587952
 C          0.0002830923        0.4757895366       -0.0111424029
 C          1.2735344685       -0.3700726860       -0.0011312425
 C          2.5505597729        0.4697490376       -0.0154825932
 C          3.8222024451       -0.3783199717        0.0136799171
 C          5.1016837003        0.4590574005       -0.0151248302
 C          6.3619303319       -0.3912037110        0.0222088077
 H         -7.2699436659        0.2114627153        0.0351648384
 H         -6.3934599062       -1.0891634352        0.8378016282
 H         -6.4045967297       -0.9924118031       -0.9163024527
 H         -5.1033954201        1.1734434384       -0.7994913243
 H         -5.0941962152        1.0812332728        0.9403197914
 H         -3.8281562419       -1.0057394133       -0.9142664834
 H         -3.8089581658       -1.0808986564        0.8247816349
 H         -2.5519698593        1.1163707162        0.8952236380
 H         -2.5530105273        1.1643847402       -0.8452844642
 H         -1.2792831499       -1.0220432741       -0.8973296568
 H         -1.2677634643       -1.0497819571        0.8433173157
 H         -0.0039437611        1.1456625221        0.8578144323
 H          0.0056152408        1.1414917688       -0.8833141092
 H          1.2706627448       -1.0508049657       -0.8616603545
 H          1.2732104578       -1.0252281174        0.8790518787
 H          2.5573719137        1.1150273014       -0.9028698773
 H          2.5478902858        1.1596348893        0.8377107203
 H          3.8192215436       -1.0160788506        0.9065847353
 H          3.8194492086       -1.0760435277       -0.8331724449
 H          5.0994298352        1.0935021936       -0.9118986669
 H          5.0943979870        1.1622122188        0.8287951266
 H          7.2695339776        0.2169558491       -0.0069445958
 H          6.4000611279       -1.0784735536       -0.8256656860
 H          6.4027330979       -0.9979369268        0.9294247769
