  32
         -4.62175475
 C          4.8068778701        1.5567544890        0.2362896282
 C          4.1655595450        0.2767969679       -0.2774708281
 C          2.7209013907        0.1075966156        0.1963106700
 C          2.0729469851       -1.1809288939       -0.3125040659
 C          0.6596302008       -1.4122997650        0.2298300051
 C         -0.3634411202       -0.3860869021       -0.2582301699
 C         -1.7718664508       -0.6581773658        0.2715983422
 C         -2.8080888095        0.3480390680       -0.2292132190
 C         -4.2089001546        0.0850234449        0.3255654413
 C         -5.2424098269        1.0764448297       -0.1867921252
 H          5.8411849933        1.6613344377       -0.1001245064
 H          4.2598543622        2.4377072786       -0.1054250721
 H          4.8127900860        1.5850488641        1.3279343874
 H          4.1925651914        0.2540415434       -1.3754889824
 H          4.7550639191       -0.5948145566        0.0380951648
 H          2.6892082172        0.1262394290        1.2926302783
 H          2.1304060211        0.9753979914       -0.1202547352
 H          2.0490377597       -1.1700065519       -1.4092624089
 H          2.7172120283       -2.0300455606       -0.0481505663
 H          0.6835381865       -1.4082877352        1.3267508484
 H          0.3131166789       -2.4175724242       -0.0449190611
 H         -0.3770539258       -0.3721840127       -1.3552907448
 H         -0.0533902752        0.6239377762        0.0356056904
 H         -2.0806338665       -1.6734988353       -0.0075050719
 H         -1.7582028882       -0.6568545442        1.3688697369
 H         -2.8369422139        0.3338971046       -1.3261835292
 H         -2.4919307399        1.3655031610        0.0335765214
 H         -4.5117706753       -0.9408410044        0.0738138172
 H         -4.1732971776        0.1078912172        1.4237585856
 H         -4.9729753059        2.1013836047        0.0785806553
 H         -5.3230180440        1.0365704435       -1.2756646093
 H         -6.2366830196        0.8816682504        0.2236656414
