  20
         -2.84701941
 C          3.1979158970        0.2190334052       -0.0005125825
 C          1.8827185996       -0.5438702325       -0.0014912029
 C          0.6631711265        0.3793209986        0.0027979462
 C         -0.6634912850       -0.3802652152        0.0011686632
 C         -1.8819635445        0.5438418356       -0.0022365362
 C         -3.1982040518       -0.2181906313        0.0003029350
 H          3.2831887007        0.8574283536        0.8817372335
 H          3.2790740323        0.8677425538       -0.8757412267
 H          4.0612472040       -0.4510881880       -0.0063416415
 H          1.8310313919       -1.2092837399       -0.8735487830
 H          1.8333168939       -1.2128957341        0.8679567899
 H          0.7054571768        1.0478736827       -0.8662988327
 H          0.7067336148        1.0435552440        0.8749930906
 H         -0.7081156961       -1.0451859922        0.8728319776
 H         -0.7045491778       -1.0478671701       -0.8686034724
 H         -1.8311353922        1.2150690749        0.8658751250
 H         -1.8312424214        1.2079972337       -0.8757899771
 H         -3.2855551631       -0.8545644102        0.8833242011
 H         -4.0614444280        0.4516980662       -0.0081990497
 H         -3.2797554371       -0.8689316934       -0.8725436794
  20
         -2.84632258
 C          2.9507869524        0.2836944765       -0.5108248986
 C          1.8229303999       -0.4409195006        0.2071528201
 C          0.4627737865        0.2269573907       -0.0027347063
 C         -0.6769349843       -0.5030498017        0.7091853096
 C         -2.0355362654        0.1902729446        0.5628897864
 C         -2.5521842803        0.2081193978       -0.8677711684
 H          3.9174056997       -0.2010397284       -0.3528588488
 H          3.0410440780        1.3155588778       -0.1647387883
 H          2.7741219087        0.3205833162       -1.5878824574
 H          1.7697140906       -1.4852817345       -0.1292453194
 H          2.0359619671       -0.5005937710        1.2830723958
 H          0.2523781741        0.2925218949       -1.0769668217
 H          0.5064679782        1.2673381262        0.3431659986
 H         -0.4225575744       -0.6093694725        1.7722544417
 H         -0.7461980278       -1.5295963502        0.3282289429
 H         -2.7727953789       -0.3025611000        1.2129935711
 H         -1.9600337117        1.2168982062        0.9460798189
 H         -2.6249976785       -0.8029604698       -1.2737445920
 H         -3.5439659500        0.6617172284       -0.9395758864
 H         -1.8909145571        0.7729823058       -1.5274086899
  20
         -2.84624934
 C          3.0074673591        0.1520299177        0.3423896677
 C          1.5535743515       -0.2906709287        0.4038289556
 C          0.7264588190        0.2385579103       -0.7696589317
 C         -0.7266131999       -0.2460291525       -0.7673013891
 C         -1.5524627101        0.2909278772        0.4036302688
 C         -3.0083105139       -0.1453616404        0.3421950280
 H          3.5900741089       -0.2307998953        1.1839932500
 H          3.0893531454        1.2409388297        0.3555212948
 H          3.4882080276       -0.1956468821       -0.5744685551
 H          1.4931847758       -1.3873567195        0.4238602351
 H          1.1034803867        0.0355418713        1.3504811490
 H          1.2162019103       -0.0525926226       -1.7086303170
 H          0.7475587723        1.3355131755       -0.7655721377
 H         -0.7481072423       -1.3429407279       -0.7565106958
 H         -1.2171624347        0.0392398783       -1.7076567051
 H         -1.1048403852       -0.0340505358        1.3518330461
 H         -1.4872530512        1.3873444272        0.4198253697
 H         -3.0951781690       -1.2338228289        0.3572276605
 H         -3.5902242063        0.2434605550        1.1814894262
 H         -3.4866554203        0.2016782741       -0.5761307038
  20
         -2.84574658
 C          2.7175433129        0.3586994609        0.5481337483
 C          1.4131498526       -0.3834197156        0.2993033154
 C          0.5240936144        0.3172833700       -0.7294475674
 C         -0.7646006244       -0.4454402178       -1.0527590509
 C         -1.7111015749       -0.6204423805        0.1399984496
 C         -2.2148465519        0.6972435728        0.7089725336
 H          3.3431081075       -0.1457349566        1.2888854455
 H          2.5331172783        1.3725034455        0.9106169728
 H          3.3028561836        0.4472218691       -0.3698642930
 H          1.6196828426       -1.4078463815       -0.0383322012
 H          0.8650356801       -0.4998737961        1.2430508077
 H          1.1029639315        0.4757077274       -1.6493913381
 H          0.2824472618        1.3265019809       -0.3751455639
 H         -0.5014210336       -1.4293482289       -1.4634641499
 H         -1.3034118199        0.0678250735       -1.8604062056
 H         -2.5678178638       -1.2409788549       -0.1607761728
 H         -1.2103324758       -1.2004972764        0.9260687326
 H         -2.9299680841        0.5459282700        1.5213736488
 H         -1.3980481686        1.3011568425        1.1083947116
 H         -2.7120415461        1.2940200160       -0.0585611017
  20
         -2.84573366
 C          2.7332396974        0.3595299374       -0.5259483195
 C          1.4153047042       -0.3698977331       -0.3150134589
 C          0.5244551092        0.3103917631        0.7256139092
 C         -0.7607945808       -0.4630136850        1.0375280136
 C         -1.7112750171       -0.6190221348       -0.1545554186
 C         -2.2362581473        0.7056849298       -0.6852458237
 H          3.3616072811       -0.1327269256       -1.2731494664
 H          3.3083276465        0.4122732523        0.4014980956
 H          2.5676479452        1.3861957298       -0.8606540851
 H          0.8758621280       -0.4483626891       -1.2674247549
 H          1.6029931298       -1.4073303951       -0.0080839363
 H          0.2793508198        1.3248858203        0.3892309188
 H          1.1035441975        0.4545986335        1.6476336921
 H         -1.2994479114        0.0319481384        1.8566417166
 H         -0.4921303733       -1.4537159235        1.4282152490
 H         -1.2073461283       -1.1711577920       -0.9583285530
 H         -2.5578340504       -1.2587611694        0.1335653285
 H         -2.9582810896        0.5653612366       -1.4940112712
 H         -2.7328879245        1.2775330993        0.1013025893
 H         -1.4304041590        1.3288359945       -1.0781331060
  20
         -2.84566458
 C          2.4670622227        0.2568646363       -0.7974991083
 C          1.9219771180       -0.4097972479        0.4566166464
 C          0.4076178351       -0.6409842369        0.4098220021
 C         -0.4062984303        0.6541159853        0.3847865884
 C         -1.9204381286        0.4261134983        0.4434046433
 C         -2.4697787289       -0.2844609159       -0.7844186689
 H          3.5528303974        0.3755973506       -0.7606789103
 H          2.0392123004        1.2505645819       -0.9429803331
 H          2.2331145675       -0.3289190748       -1.6890946338
 H          2.4370464376       -1.3683722807        0.6162239878
 H          2.1680005260        0.1955076480        1.3398164762
 H          0.0929104592       -1.2430289417        1.2727877885
 H          0.1623875579       -1.2494287582       -0.4689366439
 H         -0.1625900001        1.2268599026       -0.5180389261
 H         -0.0896195565        1.2899434336        1.2224069155
 H         -2.1650396089       -0.1461740444        1.3488332620
 H         -2.4340161773        1.3905354366        0.5691707565
 H         -2.0437081536       -1.2832050843       -0.8954497951
 H         -3.5556769665       -0.3998893528       -0.7399825194
 H         -2.2365426420        0.2679425121       -1.6972514182
  20
         -2.84549639
 C          2.7164506200        0.3627029517        0.3190090878
 C          1.8166057449       -0.6887462120       -0.3132333354
 C          0.4068902760       -0.1754465425       -0.6270027022
 C         -0.4043389397        0.1856287639        0.6184298804
 C         -1.8170820744        0.6907711733        0.3045026603
 C         -2.7183903485       -0.3740717736       -0.3028471111
 H          2.3364628506        0.6884341262        1.2889894313
 H          2.7910362512        1.2500345309       -0.3130922668
 H          3.7311888318       -0.0100059668        0.4799351264
 H          2.2847241987       -1.0650132414       -1.2343098932
 H          1.7436210815       -1.5641015375        0.3462728000
 H         -0.1393389002       -0.9284695883       -1.2092152571
 H          0.4740638024        0.7006994994       -1.2839499755
 H          0.1390643294        0.9433761524        1.1971857604
 H         -0.4665683459       -0.6885087398        1.2784787380
 H         -2.2804801766        1.0822160489        1.2216362891
 H         -1.7500107681        1.5543752042       -0.3709065142
 H         -2.3426904311       -0.7180549759       -1.2681658132
 H         -2.7882534496       -1.2490321488        0.3468017959
 H         -3.7344313653       -0.0059399891       -0.4660568886
  20
         -2.84521116
 C          2.3585766973        0.5053822423        0.4545000508
 C          1.4055742409       -0.6766328735        0.3650063024
 C          0.4688072886       -0.6106595163       -0.8459829953
 C         -0.4690190908        0.6012868648       -0.8528822590
 C         -1.4060340242        0.6809623309        0.3570091192
 C         -2.3579533905       -0.5007080205        0.4608023521
 H          2.9606338118        0.5963534994       -0.4523252128
 H          3.0480154707        0.4131491674        1.2976254515
 H          1.8204902891        1.4470376793        0.5806320250
 H          1.9837737532       -1.6116652060        0.3315891119
 H          0.8123158388       -0.7502208698        1.2859150211
 H         -0.1277903914       -1.5302941082       -0.9033159321
 H          1.0746295483       -0.6104013521       -1.7621366971
 H         -1.0742993589        0.5907314985       -1.7694492721
 H          0.1276297932        1.5202572833       -0.9202179005
 H         -0.8132808806        0.7665546104        1.2771884842
 H         -1.9852125699        1.6147602622        0.3115912022
 H         -3.0489744934       -0.3975589068        1.3013447087
 H         -2.9581425451       -0.6045086147       -0.4455910874
 H         -1.8192129347       -1.4397979523        0.6006020066
  20
         -2.84520434
 C          2.3759166646        0.5019468726        0.4408316450
 C          1.4118708927       -0.6724283145        0.3695480513
 C          0.4681772814       -0.6101174450       -0.8362216577
 C         -0.4683821682        0.6027903996       -0.8422781298
 C         -1.4133760829        0.6767524779        0.3620158897
 C         -2.3743119890       -0.4992240626        0.4466892226
 H          1.8471762717        1.4491086450        0.5635239608
 H          2.9711663060        0.5803884885       -0.4713836158
 H          3.0718239673        0.4110689636        1.2789584149
 H          1.9816480526       -1.6126723798        0.3416403213
 H          0.8243453820       -0.7317285367        1.2950658872
 H         -0.1299220946       -1.5291566079       -0.8870760194
 H          1.0691383521       -0.6140505528       -1.7556281435
 H         -1.0687421749        0.5979859177       -1.7620542965
 H          0.1295103225        1.5213581831       -0.9018926893
 H         -0.8268935133        0.7492006059        1.2872052432
 H         -1.9856240613        1.6148965131        0.3216208675
 H         -3.0714286062       -0.3998471643        1.2824877408
 H         -2.9676374802       -0.5898529564       -0.4656610982
 H         -1.8433046690       -1.4433615403        0.5812332243
  20
         -2.84322636
 C          2.7179614224       -0.2771549708        0.5483864728
 C          1.2273928449       -0.4333504519        0.2871838790
 C          0.6859229841        0.6199181901       -0.6798793389
 C         -0.7825345111        0.4275195286       -1.0797790607
 C         -1.7854911197        0.5356317744        0.0885373731
 C         -2.1063358383       -0.7994720487        0.7479726953
 H          3.2933978428       -0.3651030070       -0.3755325223
 H          3.0956217362       -1.0318776643        1.2428062972
 H          2.9440346777        0.7024993532        0.9747382591
 H          1.0166192710       -1.4351341096       -0.1109623991
 H          0.6801800018       -0.3758376317        1.2365883935
 H          1.3149500931        0.6267624278       -1.5804951504
 H          0.8167672285        1.6160742910       -0.2382914676
 H         -0.9060590951       -0.5450140830       -1.5722864911
 H         -1.0377900810        1.1673717937       -1.8524050855
 H         -1.3997942297        1.2470539302        0.8314506967
 H         -2.7227856238        0.9882169001       -0.2683575552
 H         -2.5424859681       -1.4980433682        0.0299053195
 H         -1.2176342999       -1.2793378070        1.1592978672
 H         -2.8215930991       -0.6886581836        1.5671980799
