  20
         -2.84701941
 C          3.1979158970        0.2190334052       -0.0005125825
 C          1.8827185996       -0.5438702325       -0.0014912029
 C          0.6631711265        0.3793209986        0.0027979462
 C         -0.6634912850       -0.3802652152        0.0011686632
 C         -1.8819635445        0.5438418356       -0.0022365362
 C         -3.1982040518       -0.2181906313        0.0003029350
 H          3.2831887007        0.8574283536        0.8817372335
 H          3.2790740323        0.8677425538       -0.8757412267
 H          4.0612472040       -0.4510881880       -0.0063416415
 H          1.8310313919       -1.2092837399       -0.8735487830
 H          1.8333168939       -1.2128957341        0.8679567899
 H          0.7054571768        1.0478736827       -0.8662988327
 H          0.7067336148        1.0435552440        0.8749930906
 H         -0.7081156961       -1.0451859922        0.8728319776
 H         -0.7045491778       -1.0478671701       -0.8686034724
 H         -1.8311353922        1.2150690749        0.8658751250
 H         -1.8312424214        1.2079972337       -0.8757899771
 H         -3.2855551631       -0.8545644102        0.8833242011
 H         -4.0614444280        0.4516980662       -0.0081990497
 H         -3.2797554371       -0.8689316934       -0.8725436794
