41
 energy: -42.142940721305 gnorm: 0.000474444040 xtb: 6.6.1 (8d0f1dd)
C            7.03810041566883       -0.60566900397260        0.12814837921733
C            5.59299052461359       -0.78177117207291       -0.32118800100626
C            4.70076850751414        0.35536726347261        0.17065215632323
C            3.24994516477896        0.18035471408723       -0.27156911975155
C            2.36136382220184        1.31772286805184        0.22749996194205
C            0.92294580332112        1.23326672527960       -0.28413491082574
C            0.13419224334477        0.06734361450832        0.30804362542356
C           -1.31272829228639        0.05651209979994       -0.18014382025979
C           -2.10823403278022       -1.09999792748894        0.42181696827591
C           -3.51585413954512       -1.23594390024271       -0.15944244626492
C           -4.44045171755326       -0.07816134571136        0.20957424436345
C           -5.85918363806387       -0.29366262833166       -0.31225228270586
C           -6.77719074643637        0.86890766780711        0.04450620732944
H            7.65520562448468       -1.42542802239423       -0.23266190115621
H            7.09944085898056       -0.58219954187376        1.21414633318243
H            7.44639006148190        0.32642996921432       -0.25681497136770
H            5.55478145676903       -0.82322916843527       -1.41238019658496
H            5.20845319797744       -1.73140961443738        0.05858504081157
H            5.08415106370545        1.30466054794124       -0.21189569034152
H            4.74223415853900        0.39941976683765        1.26183484765192
H            2.87767646402338       -0.77320838257829        0.10703641262763
H            3.20806588678542        0.14395429222035       -1.36307994333844
H            2.79352685043102        2.26671277772265       -0.10084010615135
H            2.35591729822618        1.32006779877341        1.32017793348819
H            0.93340852537950        1.14569687560050       -1.37335150889238
H            0.40782482096240        2.16469621640319       -0.03467147800636
H            0.14682284872836        0.14089663237056        1.39834712405259
H            0.60800976170214       -0.87663391229032        0.03311896151142
H           -1.78338697957045        1.00534256282700        0.08345267603929
H           -1.32298901442002       -0.02886702920912       -1.26964462050536
H           -2.17552490690506       -0.96799824322764        1.50442417025513
H           -1.56470487414079       -2.03052985304435        0.23761753198922
H           -3.44934592826452       -1.31173184440165       -1.24760902872303
H           -3.95741194138271       -2.16625634801756        0.20778938335620
H           -4.04990702957359        0.85257466948854       -0.20555207698001
H           -4.46896682144846        0.02764301607859        1.29692203989107
H           -6.26333066989296       -1.21755948073341        0.10857428918435
H           -5.82874814128793       -0.41174437222535       -1.39810013814652
H           -6.83672411905785        0.99037011673666        1.12407211328870
H           -6.40162073940915        1.79629759175301       -0.38300649680237
H           -7.78108809145942        0.69730201986501       -0.33723783033995
