  14
         -1.95933495
 C         -1.9450459260       -0.1311227034       -0.0006333486
 C         -0.5675496523        0.5132124058        0.0006465335
 C          0.5675740420       -0.5132856284        0.0006479931
 C          1.9450181890        0.1311458123       -0.0006304060
 H         -2.0839288396       -0.7659126633       -0.8783491500
 H         -2.0863262391       -0.7634832895        0.8784452941
 H         -2.7464188760        0.6119062837       -0.0024949443
 H         -0.4581760869        1.1745365723       -0.8696167744
 H         -0.4593485490        1.1731145169        0.8721899394
 H          0.4584499746       -1.1741883594       -0.8699994530
 H          0.4593021050       -1.1736751012        0.8717896108
 H          2.0851877289        0.7657346511        0.8770783363
 H          2.7468690276       -0.6113950218        0.0003141178
 H          2.0844296431        0.7639596100       -0.8797236832
