  14
  -1.95933495000000       5.916009999112277E-002 !mtd6
 C         -1.9450459260       -0.1311227034       -0.0006333486
 C         -0.5675496523        0.5132124058        0.0006465335
 C          0.5675740420       -0.5132856284        0.0006479931
 C          1.9450181890        0.1311458123       -0.0006304060
 H         -2.0839288396       -0.7659126633       -0.8783491500
 H         -2.0863262391       -0.7634832895        0.8784452941
 H         -2.7464188760        0.6119062837       -0.0024949443
 H         -0.4581760869        1.1745365723       -0.8696167744
 H         -0.4593485490        1.1731145169        0.8721899394
 H          0.4584499746       -1.1741883594       -0.8699994530
 H          0.4593021050       -1.1736751012        0.8717896108
 H          2.0851877289        0.7657346511        0.8770783363
 H          2.7468690276       -0.6113950218        0.0003141178
 H          2.0844296431        0.7639596100       -0.8797236832
  14
  -1.95933478000000       5.914945845318281E-002 !mtd3
 C         -1.9449082383       -0.1311797806        0.0001504295
 C         -0.5675718132        0.5132875533       -0.0001762926
 C          0.5674995388       -0.5131579735       -0.0001750860
 C          1.9450040829        0.1310769919        0.0001533949
 H         -2.0836707489       -0.7669199341        0.8770682827
 H         -2.7461317969        0.6113842755        0.0031313539
 H         -2.0865112709       -0.7622455760       -0.8797353506
 H         -0.4590459764        1.1741065384       -0.8710027900
 H         -0.4588165909        1.1739398832        0.8708166558
 H          0.4589256088       -1.1738841648       -0.8711487763
 H          0.4588247326       -1.1739372156        0.8707620775
 H          2.7460535747       -0.6119907702        0.0016424814
 H          2.0857930190        0.7635151011       -0.8789101406
 H          2.0842985673        0.7657125960        0.8779429045
  14
  -1.95933456000000       5.913568989252689E-002 !mtd5
 C         -1.9450054185       -0.1311684619        0.0019697735
 C         -0.5674455329        0.5132016543       -0.0021345742
 C          0.5674600917       -0.5132525136       -0.0021327147
 C          1.9449960246        0.1311405716        0.0019726622
 H         -2.0869022721       -0.7664118052       -0.8749046507
 H         -2.0830654869       -0.7629792025        0.8819722985
 H         -2.7466653830        0.6116022133        0.0025014334
 H         -0.4603750609        1.1724024200       -0.8744077033
 H         -0.4570647211        1.1754917874        0.8673671525
 H          0.4603719692       -1.1720667585       -0.8747668697
 H          0.4571536448       -1.1755549246        0.8672986710
 H          2.0852655937        0.7697829858       -0.8726499603
 H          2.0845813179        0.7601366274        0.8837502153
 H          2.7466388487       -0.6114648955       -0.0022893577
  14
  -1.95933444000000       5.912818111943271E-002 !mtd1
 C         -1.9450625702       -0.1311396530       -0.0001706440
 C         -0.5674825768        0.5132727125        0.0001774038
 C          0.5675507227       -0.5132183974        0.0001787918
 C          1.9450092053        0.1311512100       -0.0001676452
 H         -2.0879830958       -0.7598453237        0.8810964954
 H         -2.7466611362        0.6112827729       -0.0065256486
 H         -2.0822856599       -0.7698968170       -0.8751587168
 H         -0.4584430871        1.1738074925       -0.8707705319
 H         -0.4589050558        1.1739503748        0.8710991337
 H          0.4586155317       -1.1739705009       -0.8707663060
 H          0.4588206383       -1.1741073375        0.8709693450
 H          2.0835747778        0.7672861840       -0.8770372208
 H          2.0864897336        0.7623330174        0.8798406633
 H          2.7466012114       -0.6116248502       -0.0029606015
  14
  -1.95933442000000       5.912692974995735E-002 !mtd6
 C         -1.9451084777       -0.1311520472       -0.0012885069
 C         -0.5674853355        0.5131985460        0.0014419570
 C          0.5674602744       -0.5133341905        0.0014433617
 C          1.9450930171        0.1311828505       -0.0012855879
 H         -2.7467432295        0.6117593019       -0.0015213816
 H         -2.0843573013       -0.7629480035       -0.8813784320
 H         -2.0860590028       -0.7674593836        0.8754573902
 H         -0.4576626959        1.1748500161       -0.8686435803
 H         -0.4599366011        1.1732240999        0.8730626574
 H          0.4578916949       -1.1745175961       -0.8689744121
 H          0.4599319341       -1.1724001765        0.8737434261
 H          2.0844565721        0.7628318413       -0.8812042302
 H          2.0860052437        0.7675065390        0.8752566609
 H          2.7469562782       -0.6115972613        0.0004930906
  14
  -1.95933424000000       5.911566861630325E-002 !mtd6
 C         -1.9448645962       -0.1309429557       -0.0003498093
 C         -0.5675035524        0.5130002296        0.0004799903
 C          0.5675619168       -0.5134471184        0.0004823157
 C          1.9448398617        0.1313018902       -0.0003471034
 H         -2.0861890420       -0.7592650117       -0.8821675472
 H         -2.0840988646       -0.7691241588        0.8749211341
 H         -2.7458809580        0.6130720303        0.0041623248
 H         -0.4588969501        1.1734001693       -0.8706234513
 H         -0.4587394679        1.1738149087        0.8712568527
 H          0.4586405150       -1.1745619656       -0.8701427576
 H          0.4593610768       -1.1740833261        0.8717137549
 H          2.7465326252       -0.6113681877       -0.0020036903
 H          2.0833900916        0.7651832569       -0.8787393202
 H          2.0854802104        0.7639804232        0.8784600465
  14
  -1.95933367000000       5.908002250724814E-002 !mtd6
 C         -1.9451119362       -0.1309527884       -0.0013209027
 C         -0.5675577306        0.5130417702        0.0013553917
 C          0.5677628525       -0.5133847708        0.0013573720
 C          1.9449797899        0.1312447728       -0.0013180369
 H         -2.7470507488        0.6122327982        0.0063245006
 H         -2.0867451107       -0.7577886697       -0.8844302068
 H         -2.0834196025       -0.7716272161        0.8722399221
 H         -0.4578511650        1.1756172972       -0.8681578503
 H         -0.4601149768        1.1715258314        0.8735486499
 H          0.4581027673       -1.1752206422       -0.8683372729
 H          0.4606127130       -1.1726561492        0.8732824679
 H          2.0843388347        0.7673910611        0.8748772553
 H          2.7467506427       -0.6109499949        0.0011842100
 H          2.0845070065        0.7620836366       -0.8814114264
  14
  -1.95933323000000       5.905252091317262E-002 !mtd1
 C         -1.9448866121       -0.1310996320        0.0008229637
 C         -0.5676350274        0.5132803000       -0.0008715406
 C          0.5675625700       -0.5132308887       -0.0008699510
 C          1.9449200933        0.1311358676        0.0008258561
 H         -2.0801310658       -0.7732007861        0.8742415577
 H         -2.7465018107        0.6120126831        0.0121469443
 H         -2.0889401462       -0.7576402918       -0.8822028382
 H         -0.4599597376        1.1731482964       -0.8724229794
 H         -0.4579413161        1.1746018357        0.8692481313
 H          0.4595476333       -1.1733174326       -0.8724334939
 H          0.4580169513       -1.1744838268        0.8696119422
 H          2.0838696910        0.7649465974        0.8793284186
 H          2.7467407954       -0.6118194234        0.0010233466
 H          2.0857634779        0.7647317047       -0.8774366737
  14
  -1.95933286000000       5.902940448186948E-002 !mtd3
 C         -1.9450108583       -0.1311713629       -0.0041038519
 C         -0.5675403394        0.5132498074        0.0044696603
 C          0.5675673112       -0.5132881775        0.0044703196
 C          1.9450218858        0.1311109287       -0.0041007855
 H         -2.7464982297        0.6116878915        0.0020959778
 H         -2.0835612940       -0.7554980759       -0.8894257401
 H         -2.0863512396       -0.7737046725        0.8675917724
 H         -0.4555109083        1.1778561532       -0.8630257510
 H         -0.4620979062        1.1701670765        0.8786623633
 H          0.4554615334       -1.1769466660       -0.8637511250
 H          0.4622130041       -1.1700265591        0.8787281662
 H          2.7460794629       -0.6116878802       -0.0034196949
 H          2.0813976543        0.7598606033       -0.8861947765
 H          2.0884150907        0.7694695660        0.8699758360
  14
  -1.95861361000000       2.757553760542488E-002 !mtd6
 C         -1.5632378820       -0.0306416783       -0.5673236302
 C         -0.6781519150        0.3572587665        0.6074696177
 C          0.6781449366       -0.3573889086        0.6073650630
 C          1.5632702104        0.0307871558       -0.5673060014
 H         -1.1088857509        0.2445872839       -1.5209084435
 H         -1.7365243232       -1.1085013131       -0.5920297947
 H         -2.5403299293        0.4570180133       -0.5228345811
 H         -0.5135376105        1.4433376020        0.6089590209
 H         -1.2061780791        0.1482873608        1.5490997644
 H          0.5135272966       -1.4435314645        0.6086243612
 H          1.2061778784       -0.1487887876        1.5491127196
 H          2.5394295289       -0.4586971472       -0.5242614178
 H          1.1078679909       -0.2422225115       -1.5208525254
 H          1.7381509056        1.1083282142       -0.5907011905
  14
  -1.95861360000000       2.757524580405412E-002 !mtd1
 C         -1.5634778663       -0.0307146957        0.5672692502
 C         -0.6781306198        0.3573323356       -0.6074012510
 C          0.6781108010       -0.3574175968       -0.6072932772
 C          1.5634960646        0.0307900101        0.5672563449
 H         -1.7366011106       -1.1086326316        0.5921090939
 H         -1.1094613838        0.2448654608        1.5209491209
 H         -2.5406869413        0.4566648979        0.5223602313
 H         -1.2060481632        0.1486040821       -1.5491778698
 H         -0.5134370081        1.4434389439       -0.6087187545
 H          1.2061333156       -0.1488602163       -1.5490591985
 H          0.5133815124       -1.4435213530       -0.6084596970
 H          1.7397827617        1.1082972459        0.5896718650
 H          1.1077103696       -0.2410050714        1.5211651719
 H          2.5392459589       -0.4597328235        0.5245217345
  14
  -1.95861353000000       2.757320328090269E-002 !mtd6
 C         -1.5631087076       -0.0306749558        0.5673418549
 C         -0.6779541347        0.3573851653       -0.6074744197
 C          0.6780471501       -0.3576227076       -0.6073660522
 C          1.5630521830        0.0309135681        0.5673288976
 H         -1.7397012829       -1.1080798423        0.5893302046
 H         -1.1071371899        0.2409198317        1.5211436742
 H         -2.5388456252        0.4597462989        0.5247860593
 H         -1.2059987808        0.1491523782       -1.5492969976
 H         -0.5129410556        1.4434236741       -0.6086667604
 H          1.2060937603       -0.1499469926       -1.5493095097
 H          0.5131459541       -1.4436384477       -0.6082233536
 H          2.5396359745       -0.4580083080        0.5239512184
 H          1.7374626023        1.1088338003        0.5904320743
 H          1.1078507881       -0.2424151442        1.5212244588
  14
  -1.95861345000000       2.757086915398575E-002 !mtd2
 C         -1.5641199862       -0.0309265363       -0.5667000974
 C         -0.6778869256        0.3578608599        0.6068225455
 C          0.6778028779       -0.3579857737        0.6067181626
 C          1.5641528327        0.0311313201       -0.5666825262
 H         -2.5400954981        0.4590502937       -0.5233870166
 H         -1.1087933628        0.2401342724       -1.5210839595
 H         -1.7396502117       -1.1084472761       -0.5886455692
 H         -0.5123079532        1.4438534463        0.6062344192
 H         -1.2054085898        0.1510717467        1.5492512670
 H          0.5123163092       -1.4439816708        0.6063276820
 H          1.2053794452       -0.1512459752        1.5490666749
 H          1.7390249973        1.1088918922       -0.5889231069
 H          2.5401193434       -0.4586138272       -0.5228567298
 H          1.1100256779       -0.2416647022       -1.5212160780
  14
  -1.95861343000000       2.757028565312714E-002 !mtd4
 C         -1.5621226381       -0.0302692078       -0.5680444494
 C         -0.6784151099        0.3565596485        0.6082727167
 C          0.6784551192       -0.3567666642        0.6081681835
 C          1.5620872072        0.0304678020       -0.5680268111
 H         -1.7344588319       -1.1083233490       -0.5945733218
 H         -2.5397916131        0.4563099607       -0.5237211240
 H         -1.1072173066        0.2469494566       -1.5208321518
 H         -0.5147274224        1.4427640771        0.6112568360
 H         -1.2068979290        0.1459432670        1.5492618710
 H          0.5149443417       -1.4429908079        0.6110450099
 H          1.2071356687       -0.1461518495        1.5490869419
 H          2.5389311356       -0.4579877169       -0.5253606146
 H          1.1059575094       -0.2447064378       -1.5208256932
 H          1.7360698870        1.1082937578       -0.5930912425
  14
  -1.95861341000000       2.756970216462402E-002 !mtd2
 C         -1.5631323786       -0.0307057880       -0.5673029280
 C         -0.6781108935        0.3574036461        0.6074665278
 C          0.6779927512       -0.3575208158        0.6073619390
 C          1.5632285605        0.0308448764       -0.5672853467
 H         -2.5382714992        0.4613715359       -0.5262978465
 H         -1.1058604182        0.2389400488       -1.5211730574
 H         -1.7411260746       -1.1080531638       -0.5882955487
 H         -0.5131890115        1.4433891195        0.6085143765
 H         -1.2062318889        0.1488316330        1.5491225652
 H          0.5131106588       -1.4435550764        0.6082432377
 H          1.2060341802       -0.1492747612        1.5491221276
 H          1.1079311469       -0.2417538458       -1.5210423420
 H          1.7383728600        1.1083964809       -0.5901647252
 H          2.5394917459       -0.4585531728       -0.5242396693
  14
  -1.95861302000000       2.755832660662833E-002 !mtd4
 C         -1.5634343416       -0.0308367740       -0.5671590657
 C         -0.6778641751        0.3574871357        0.6073585384
 C          0.6779999725       -0.3575871373        0.6072538397
 C          1.5633507758        0.0308493949       -0.5671413061
 H         -1.1071290229        0.2400456300       -1.5210315932
 H         -1.7401556483       -1.1082061095       -0.5892498711
 H         -2.5389625061        0.4601823984       -0.5249217779
 H         -0.5124852467        1.4434097830        0.6083323087
 H         -1.2062227308        0.1493978580        1.5489578858
 H          0.5127596853       -1.4435714434        0.6070783413
 H          1.2060145015       -0.1500802267        1.5491655014
 H          1.7341718573        1.1087076775       -0.5917347843
 H          2.5415609104       -0.4543073523       -0.5225019527
 H          1.1098257645       -0.2445369112       -1.5211607383
  14
  -1.95861278000000       2.755132859632094E-002 !mtd4
 C         -1.5622673805       -0.0301921374        0.5679890993
 C         -0.6784746740        0.3564117898       -0.6082250236
 C          0.6784957988       -0.3569065650       -0.6081161171
 C          1.5621910323        0.0305328593        0.5679759854
 H         -2.5373225336        0.4613251139        0.5268367040
 H         -1.7389478861       -1.1074732191        0.5918824541
 H         -1.1047989410        0.2420336388        1.5208409951
 H         -1.2071548915        0.1458983330       -1.5491428610
 H         -0.5146594903        1.4426307062       -0.6114162796
 H          1.2069288085       -0.1461475298       -1.5491317278
 H          0.5152465829       -1.4431788299       -0.6110162921
 H          1.7301912107        1.1093265688        0.5970806648
 H          1.1093206609       -0.2506020788        1.5207113679
 H          2.5418545689       -0.4519768712        0.5211849263
  14
  -1.95861258000000       2.754549827854766E-002 !mtd3
 C         -1.5623893510       -0.0303365366        0.5679755911
 C         -0.6785158805        0.3566135815       -0.6081071039
 C          0.6784868595       -0.3565226639       -0.6079992797
 C          1.5623991240        0.0303490544        0.5679627467
 H         -1.1090183598        0.2497937740        1.5205543224
 H         -2.5411569755        0.4523067716        0.5208758227
 H         -1.7311414240       -1.1089126425        0.5970517080
 H         -1.2068244224        0.1453093408       -1.5491378156
 H         -0.5150659080        1.4429931138       -0.6108814373
 H          1.2067896918       -0.1459677585       -1.5489859639
 H          0.5150234866       -1.4425151525       -0.6116878887
 H          2.5402712270       -0.4553308036        0.5225645047
 H          1.7337778855        1.1084566868        0.5946910906
 H          1.1075741746       -0.2473659551        1.5203067819
  14
  -1.95861256000000       2.754491531462996E-002 !mtd2
 C         -1.5607581168       -0.0297635464       -0.5689340582
 C         -0.6789529234        0.3555301879        0.6091886381
 C          0.6789654237       -0.3557813920        0.6090839472
 C          1.5607323341        0.0299256474       -0.5689164119
 H         -1.7300925153       -1.1081897593       -0.5990068091
 H         -2.5394304927        0.4546832112       -0.5238474222
 H         -1.1059175003        0.2522094287       -1.5204605404
 H         -0.5172779893        1.4419930358        0.6152949724
 H         -1.2081661109        0.1415562428        1.5490169611
 H          0.5172234449       -1.4422911070        0.6146460090
 H          1.2082549150       -0.1423942124        1.5489617706
 H          1.7306146986        1.1082748139       -0.5985368125
 H          2.5396220072       -0.4540467037       -0.5239881335
 H          1.1053278272       -0.2507331223       -1.5204588284
  14
  -1.95861220000000       2.753442407364954E-002 !mtd1
 C         -1.5609183982       -0.0297186440        0.5688236864
 C         -0.6789764122        0.3555759613       -0.6090897962
 C          0.6789413017       -0.3558936525       -0.6089809740
 C          1.5609077086        0.0300394636        0.5688105782
 H         -2.5399862069        0.4538005845        0.5231803943
 H         -1.7285813527       -1.1084399385        0.5999505332
 H         -1.1065869013        0.2526535998        1.5204125792
 H         -1.2081408032        0.1413904516       -1.5487958423
 H         -0.5172801155        1.4420006606       -0.6153720797
 H          1.2080825998       -0.1427148689       -1.5490316975
 H          0.5170713112       -1.4423795036       -0.6145048466
 H          2.5409975986       -0.4511658903        0.5221616984
 H          1.7273622234        1.1087317268        0.6003234100
 H          1.1076074407       -0.2539141028        1.5202261716
  14
  -1.95861184000000       2.752393682855418E-002 !mtd5
 C         -1.5604991533       -0.0294977405       -0.5691882237
 C         -0.6792379791        0.3550661405        0.6094122048
 C          0.6792396569       -0.3551708958        0.6093073411
 C          1.5605081891        0.0296977459       -0.5691705486
 H         -1.1045098667        0.2504777022       -1.5205747116
 H         -1.7308149106       -1.1077191547       -0.5992119595
 H         -2.5391757919        0.4551199487       -0.5242201024
 H         -0.5182829665        1.4417062357        0.6166517605
 H         -1.2085749031        0.1394522334        1.5488507581
 H          0.5184412408       -1.4418185797        0.6164114795
 H          1.2085436090       -0.1394773286        1.5487218264
 H          1.1060952022       -0.2538798012       -1.5203603387
 H          1.7282788850        1.1082765107       -0.6008934020
 H          2.5398718298       -0.4532728478       -0.5230231448
  14
  -1.95861166000000       2.751869470398211E-002 !mtd1
 C         -1.5608316701       -0.0296437128       -0.5689645361
 C         -0.6789594824        0.3552806956        0.6091946357
 C          0.6791302956       -0.3556653777        0.6090902218
 C          1.5608701254        0.0299078385       -0.5689469401
 H         -2.5383211662        0.4574200867       -0.5242275658
 H         -1.1053534911        0.2502161730       -1.5208049649
 H         -1.7349930929       -1.1072984842       -0.5971987728
 H         -0.5173357561        1.4418569433        0.6154112005
 H         -1.2082363452        0.1413044408        1.5490801646
 H          0.5175171158       -1.4422570855        0.6149570359
 H          1.2084445403       -0.1416428768        1.5489852301
 H          2.5380418418       -0.4585977970       -0.5269939763
 H          1.1035927591       -0.2476082667       -1.5207467703
 H          1.7341497715        1.1080435196       -0.5962596593
  14
  -1.95861121000000       2.750559376012822E-002 !mtd3
 C         -1.5599504301       -0.0295255910        0.5694957279
 C         -0.6793312176        0.3550667044       -0.6098186652
 C          0.6792848989       -0.3550770213       -0.6097104397
 C          1.5600044885        0.0295351701        0.5694827864
 H         -2.5416785790        0.4483892181        0.5210761185
 H         -1.7228379955       -1.1087880838        0.6053191150
 H         -1.1072415221        0.2597667882        1.5197705295
 H         -1.2088609149        0.1396316196       -1.5491531875
 H         -0.5186429677        1.4417189464       -0.6172585111
 H          1.2089015705       -0.1398419380       -1.5490319393
 H          0.5182617938       -1.4416820306       -0.6168335836
 H          1.1050417753       -0.2551237416        1.5200370914
 H          2.5399231476       -0.4522875337        0.5238176201
 H          1.7270414591        1.1082255474        0.6021666028
  14
  -1.95861106000000       2.750122816499750E-002 !mtd6
 C         -1.5672330280       -0.0320151743        0.5647203026
 C         -0.6767162370        0.3599073222       -0.6046572762
 C          0.6767045838       -0.3602814817       -0.6045491706
 C          1.5672245840        0.0323254432        0.5647073039
 H         -1.1102847811        0.2257679826        1.5219854990
 H         -2.5385539333        0.4676409490        0.5255095282
 H         -1.7533667124       -1.1081058862        0.5757609011
 H         -1.2027153363        0.1593746335       -1.5492800233
 H         -0.5074262780        1.4452514598       -0.5988135023
 H          1.2026332860       -0.1598771262       -1.5492555071
 H          0.5076913823       -1.4456739452       -0.5984338313
 H          1.7467962500        1.1092728928        0.5798199861
 H          1.1140107997       -0.2319044513        1.5218072562
 H          2.5414548188       -0.4609851337        0.5216127114
  14
  -1.95860895000000       2.743989216779950E-002 !mtd4
 C         -1.5649236563       -0.0315829880        0.5662373283
 C         -0.6774775026        0.3587419045       -0.6062962576
 C          0.6773940949       -0.3583105263       -0.6061896706
 C          1.5649521441        0.0311506918        0.5662247763
 H         -1.7341030898       -1.1096256490        0.5912114082
 H         -1.1147519967        0.2459391460        1.5206883295
 H         -2.5436593435        0.4520769011        0.5184578313
 H         -1.2046870878        0.1539363304       -1.5494359201
 H         -0.5113290712        1.4447603147       -0.6038359458
 H          1.2048766615       -0.1533674316       -1.5490574985
 H          0.5103223713       -1.4440810773       -0.6043569282
 H          1.1031848279       -0.2228357988        1.5224850941
 H          2.5341282178       -0.4733536114        0.5311563774
 H          1.7566729829        1.1065618156        0.5763197016
  14
  -1.95860631000000       2.736334211782736E-002 !mtd5
 C         -1.5576167737       -0.0285495725       -0.5711607317
 C         -0.6802215921        0.3532907330        0.6115952901
 C          0.6802164567       -0.3532326321        0.6114897522
 C          1.5576571651        0.0286584062       -0.5711429317
 H         -1.7125881243       -1.1088184525       -0.6151015094
 H         -2.5426198064        0.4417051404       -0.5195632030
 H         -1.1072184226        0.2712231586       -1.5193683189
 H         -0.5227553395        1.4403465658        0.6243287087
 H         -1.2110490572        0.1321671055        1.5489708384
 H          0.5218992666       -1.4400972354        0.6231247013
 H          1.2112072923       -0.1330486123        1.5489278477
 H          1.0992098343       -0.2568150107       -1.5200156011
 H          1.7268538126        1.1073597315       -0.6062251821
 H          2.5366404033       -0.4560117273       -0.5277384086
