38
 energy: -38.979387451508 gnorm: 0.000475558891 xtb: 6.6.1 (8d0f1dd)
C            6.56611167556723        0.79220285148975        0.18790658927020
C            5.14077225558940        1.05537341836332       -0.28252315119658
C            4.17373164196763       -0.02467789866148        0.19625957041944
C            2.74476096004808        0.23757053967258       -0.27199632413453
C            1.77324152400869       -0.84044278747829        0.20224803426577
C            0.34526630980264       -0.56315881588210       -0.26173279510052
C           -0.63079674809714       -1.63218644703335        0.22422633874555
C           -2.05626689136378       -1.43312005010506       -0.29293844019747
C           -2.73475230921372       -0.18475229224146        0.26661109993379
C           -4.18421291480063       -0.06442005493044       -0.19808447617387
C           -4.85398902033451        1.19565647358129        0.34498425661856
C           -6.29996441442207        1.31985855137178       -0.11952954051931
H            7.23659248867543        1.57297900458512       -0.16364451228401
H            6.92228776370121       -0.16312042520125       -0.19157265542097
H            6.60978669363425        0.76543301208980        1.27460089095260
H            4.80886690763841        2.02677346630003        0.09131768458547
H            5.12088317266552        1.09786120777517       -1.37398739485642
H            4.19365258451963       -0.06827752618014        1.28788230169842
H            4.50417970158447       -0.99653075889883       -0.17815872300573
H            2.41558020379379        1.20932795408699        0.10417355456809
H            2.72580569975626        0.28438701223546       -1.36355452604065
H            2.09706327614601       -1.81223892519819       -0.17808629547770
H            1.79416627129112       -0.89075659815007        1.29356482103701
H            0.32222179034314       -0.52364799776323       -1.35343415696629
H            0.03853072012549        0.41472006853347        0.11281722443398
H           -0.27203947750902       -2.60957040199629       -0.10843387939116
H           -0.64182636909406       -1.64077741038440        1.31675125779530
H           -2.65210993650720       -2.30740905932011       -0.01859798403660
H           -2.03903149921743       -1.37647008463582       -1.38395821847133
H           -2.18946406525071        0.70547777057335       -0.05111023247280
H           -2.70805581809809       -0.21923708829865        1.35847600237560
H           -4.21234515266084       -0.04554700470381       -1.29029059067896
H           -4.74569540084593       -0.94235139518756        0.13055880860538
H           -4.29123217174740        2.07211851974094        0.01515966435927
H           -4.82414630162576        1.17643442382053        1.43691024582710
H           -6.88321946983423        0.46513445258059        0.21624044330334
H           -6.34921762090850        1.36131669809673       -1.20553539522655
H           -6.75432729895233        2.22380358619043        0.27953790863507
