29        
         -4.17725869
C -3.384406 -1.631981 0.163766
C -3.583547 -0.201864 -0.315906
C -2.530313 0.771650 0.223195
C -1.115449 0.480631 -0.278728
C -0.085116 1.491259 0.227084
C 1.331682 1.233945 -0.294608
C 1.947664 -0.065904 0.225178
C 3.386022 -0.277583 -0.250289
C 3.991038 -1.572920 0.268055
H -3.379029 -1.685426 1.254632
H -2.435575 -2.044920 -0.183937
H -4.174697 -2.297453 -0.192996
H -4.586971 0.144961 -0.029399
H -3.575119 -0.171198 -1.414024
H -2.799325 1.802246 -0.044601
H -2.538680 0.750282 1.320197
H -1.109354 0.466652 -1.375792
H -0.819102 -0.530512 0.021844
H -0.078047 1.486919 1.324212
H -0.410260 2.502305 -0.052483
H 1.988269 2.071875 -0.024375
H 1.322109 1.220838 -1.391688
H 1.334782 -0.921545 -0.082777
H 1.917877 -0.074345 1.322037
H 3.410872 -0.260810 -1.348456
H 4.001071 0.578178 0.059910
H 5.015351 -1.718461 -0.084393
H 3.407213 -2.438295 -0.053563
H 4.014162 -1.589190 1.360018
