29
 energy: -29.485211092761 gnorm: 0.000333916182 xtb: 6.6.1 (8d0f1dd)
C           -3.43732513622616       -1.61829698687523        0.17143158663192
C           -3.58287074588116       -0.18513886589915       -0.32760758295416
C           -2.51422495228000        0.75790866124891        0.22698926822378
C           -1.10935037997198        0.44635139362751       -0.28429617399890
C           -0.08408773221052        1.45387399240106        0.23197911677709
C            1.32809471688899        1.20838576107564       -0.30192355418341
C            1.96055575013531       -0.07560510794288        0.23080420798636
C            3.40029838297786       -0.24830983141293       -0.24751108119906
C            4.01412835384960       -1.54482062797296        0.26714586187526
H           -3.41418046167170       -1.64137601867032        1.25894286033942
H           -2.52348399537079       -2.07237701148032       -0.20228906958578
H           -4.27647763021596       -2.22251865674092       -0.16600883854089
H           -4.56517470666509        0.19167712476838       -0.03235498387935
H           -3.54075049657307       -0.17539154053352       -1.41923496100329
H           -2.77222315646155        1.78253534082747       -0.05321854019367
H           -2.52050800830808        0.70422896998650        1.31836360760053
H           -1.11162501006475        0.46331534248349       -1.37695734031078
H           -0.82421666784691       -0.55518897719479        0.03630186425741
H           -0.06573158983310        1.42245991976297        1.32410780017480
H           -0.39985374719268        2.45825161702297       -0.06222809989772
H            1.96074862825726        2.05344800926080       -0.01814637735984
H            1.29950145858006        1.17187487028359       -1.39365500726225
H            1.37734683801900       -0.93783247725284       -0.09674398861448
H            1.94436553594764       -0.05778919833259        1.32326313987724
H            3.41943856274382       -0.24686931168308       -1.33988153075118
H            4.00034631118098        0.59830068794106        0.09422194887400
H            5.03783917945086       -1.65181582836036       -0.08422815715328
H            3.44107822570098       -2.40206486273942       -0.08018522286483
H            4.02145271341972       -1.55788419791577        1.35503496011054
