23
 energy: -23.158231291425 gnorm: 0.000211087688 xtb: 6.6.1 (8d0f1dd)
C           -3.79511036621381        0.36010758206351        0.00023887837780
C           -2.53354306870180       -0.49473477836514       -0.00010151654706
C           -1.26702387422640        0.35804745324778       -0.00130205379939
C            0.00000180899717       -0.49382149181071        0.00053775212274
C            1.26703279628831        0.35804056963079        0.00243398810463
C            2.53354699481100       -0.49474525080005       -0.00051669121724
C            3.79511629751347        0.36009354537542       -0.00123497967069
H           -3.82328379933122        0.99798994608153        0.88110963744331
H           -3.82550373668677        0.99563817213833       -0.88225434362547
H           -4.68359444130969       -0.26717845442291        0.00220305919152
H           -2.53234631121548       -1.13969542189244        0.88170146203277
H           -2.53346105905404       -1.14077123054883       -0.88111391636484
H           -1.26757383815556        1.00237193676522       -0.88383054411924
H           -1.26806875233455        1.00545252889285        0.87897490691050
H            0.00129454607441       -1.14005758824616       -0.88071915224212
H           -0.00129549477511       -1.14022877442121        0.88166257603120
H            1.26816298013648        1.00158855609296        0.88552426387542
H            1.26750344461978        1.00622112064429       -0.87727600956378
H            2.53423740579679       -1.14156673681168        0.87991466766101
H            2.53157140222477       -1.13892038418129       -0.88289618668939
H            4.68358754853619       -0.26718544936463       -0.00717783019988
H            3.82762133552796        0.99301552632630        0.88305262330960
H            3.82119421485678        1.00057462090421       -0.88028560394417
