35        
         -5.06505789
C -2.282005 2.576365 -0.262072
C -2.120387 1.237191 0.440592
C -2.649736 0.066652 -0.390837
C -2.514149 -1.294277 0.301196
C -1.068383 -1.704336 0.597762
C -0.219918 -1.905215 -0.658698
C 1.243168 -2.249497 -0.362630
C 1.995278 -1.162419 0.412580
C 2.032276 0.187480 -0.304926
C 2.783834 1.263113 0.480196
C 2.767786 2.614474 -0.216967
H -1.904695 3.405657 0.341444
H -3.331190 2.782655 -0.484295
H -1.743324 2.591013 -1.212196
H -1.062606 1.072325 0.682133
H -2.633116 1.253585 1.412054
H -2.135930 0.047365 -1.359164
H -3.702898 0.255177 -0.639358
H -2.985863 -2.072135 -0.313726
H -3.091605 -1.275713 1.235123
H -1.051201 -2.628375 1.191197
H -0.603474 -0.950958 1.242753
H -0.261357 -1.004732 -1.281127
H -0.675356 -2.691150 -1.276107
H 1.772689 -2.445544 -1.304559
H 1.283086 -3.195652 0.193132
H 1.546279 -1.032987 1.404588
H 3.024222 -1.489282 0.614111
H 2.484792 0.066969 -1.297183
H 1.011465 0.536138 -0.499515
H 2.345331 1.351548 1.483670
H 3.818062 0.934333 0.650570
H 1.745744 2.968216 -0.369109
H 3.237214 2.556679 -1.201229
H 3.297885 3.379693 0.355450
