35
 energy: -35.812633287035 gnorm: 0.000952075677 xtb: 6.6.1 (8d0f1dd)
C           -2.54879637216662        2.58481433774288       -0.21930781889746
C           -2.22944436948756        1.24305052048517        0.42778809511891
C           -2.67966915959773        0.07332023685088       -0.44513089605994
C           -2.51610169779559       -1.29032145045233        0.23012917879964
C           -1.07416395266678       -1.66214962861561        0.58061432864296
C           -0.19431726866767       -1.87602937138890       -0.64851604151184
C            1.25339955010760       -2.22815742421821       -0.30151306075544
C            2.01442281977984       -1.14212528239712        0.46313154147977
C            2.07008385195642        0.19619389178511       -0.27004052455104
C            2.95697328445911        1.20735727820388        0.45191917092533
C            2.94547755051180        2.56338855132233       -0.24361174810941
H           -2.20778580306741        3.40414853760033        0.40983106885184
H           -3.62058695082905        2.69197140217701       -0.37079060991302
H           -2.05834669864889        2.66842971989486       -1.18681899276505
H           -1.15409935508440        1.18386600084029        0.60203917829690
H           -2.72711493026680        1.18005386506281        1.39810748597617
H           -2.12812600993594        0.09138405056859       -1.38677219540167
H           -3.73690186701018        0.20731687794257       -0.68877357769462
H           -2.92896834229777       -2.05801773845119       -0.42939897021834
H           -3.10793451686803       -1.29383973849532        1.14923122538119
H           -1.08663092502951       -2.58482651536644        1.16666180214329
H           -0.64888477318309       -0.88254174375519        1.21125722805786
H           -0.20332378206058       -0.98310026477111       -1.27272214631378
H           -0.61432118955936       -2.69209058421557       -1.24249808374973
H            1.78784925684112       -2.43822552778390       -1.23161018898966
H            1.26252780852271       -3.14296593507800        0.29658606429766
H            1.56390840646426       -0.99636149299474        1.44674544414506
H            3.03585138960188       -1.49565589386749        0.62735947373572
H            2.45100560333450        0.03966540662452       -1.28193657688753
H            1.06577917592515        0.61375455126557       -0.35396033686792
H            2.60619184572468        1.32482263937026        1.47983877087773
H            3.98017069945553        0.82811970470332        0.49458792775124
H            1.93635725647201        2.96861378996368       -0.27103873983179
H            3.30321085443066        2.46997627317206       -1.26643072368063
H            3.58424640747599        3.27051442392059        0.27988796056245
