32        
         -4.62084760
C 2.159009 -2.004389 -0.007947
C 2.863651 -0.827391 0.649649
C 2.955761 0.407885 -0.253112
C 1.598702 0.986920 -0.664641
C 0.773394 1.505246 0.513551
C -0.557579 2.138859 0.096991
C -1.518771 1.175062 -0.605814
C -1.934808 -0.014953 0.259580
C -2.939793 -0.935797 -0.434056
C -3.318803 -2.137694 0.416692
H 2.644973 -2.281851 -0.945589
H 2.155155 -2.889566 0.633071
H 1.118350 -1.771811 -0.240556
H 2.355477 -0.562983 1.586124
H 3.874368 -1.131569 0.958401
H 3.539974 1.191008 0.248111
H 3.533214 0.148674 -1.150523
H 1.742531 1.803653 -1.384720
H 1.028394 0.227679 -1.211406
H 1.374020 2.232205 1.076599
H 0.585201 0.690045 1.221091
H -0.354631 2.999208 -0.554527
H -1.058021 2.558895 0.979702
H -2.419933 1.714860 -0.926750
H -1.067584 0.808705 -1.535783
H -2.356972 0.346437 1.205655
H -1.051029 -0.596917 0.546430
H -3.837095 -0.360493 -0.698609
H -2.523350 -1.268977 -1.394141
H -3.758120 -1.826746 1.366618
H -4.043849 -2.784285 -0.083787
H -2.443511 -2.746742 0.651465
