20
 energy: -19.993836739218 gnorm: 0.000611651828 xtb: 6.6.1 (8d0f1dd)
C            3.18254873739941        0.22311137382772       -0.00020458565148
C            1.86855280973736       -0.54877200026288       -0.00105324488080
C            0.65958327728109        0.38383335342153        0.00223438121940
C           -0.65976587930013       -0.38426462883521        0.00133753489269
C           -1.86847893616742        0.54869455145039       -0.00233989286953
C           -3.18286329323933       -0.22250972719230        0.00027626717161
H            3.25503499376095        0.85216082283783        0.88439053803496
H            3.25093132332377        0.86087720059332       -0.87887789318961
H            4.02834992174692       -0.46057606712536       -0.00555391013228
H            1.82586870651313       -1.19011144009513       -0.88427954963866
H            1.82738770976062       -1.19488361238836        0.87875455253321
H            0.70138555567567        1.03017739979305       -0.87773201803297
H            0.70269512298667        1.02598558943441        0.88517924905548
H           -0.70379895288427       -1.02721058747078        0.88366447666697
H           -0.70086739078383       -1.02979467833467       -0.87925326803533
H           -1.82650166487914        1.19577640158110        0.87671023077337
H           -1.82604224291643        1.18902006576346       -0.88630764447239
H           -3.25585706955953       -0.84926509528757        0.88645503722480
H           -4.02827149021961        0.46164095646830       -0.00694380201623
H           -3.25149023193349       -0.86247287036504       -0.87677645554477
