44
 energy: -45.308169510750 gnorm: 0.000226496568 xtb: 6.6.1 (8d0f1dd)
C            6.98022949255737        2.22480951461229        0.21237472822038
C            6.32983835102135        0.92708607920076       -0.25130169281718
C            4.88043886288730        0.82138136554955        0.21585068206759
C            4.20994580795920       -0.46593564477425       -0.25767925949975
C            2.76324979016721       -0.56143532766285        0.22104010772256
C            2.07501338431504       -1.82876795163233       -0.28108075902061
C            0.65313516637613       -1.99893440368132        0.25583025342335
C           -0.31644234522068       -0.93487074509689       -0.25331520794623
C           -1.74249143888259       -1.17555762725933        0.23612381184441
C           -2.69716682509188       -0.08550849908322       -0.24484154336868
C           -4.12456856934002       -0.30384846247557        0.24986418276042
C           -5.06531303641696        0.80590916029818       -0.21296567066766
C           -6.49486770837650        0.59320493116536        0.27846667864141
C           -7.42260510351064        1.71529359985291       -0.17110017842873
H            6.96902103871209        2.28988959985986        1.29833859473834
H            8.01298291495645        2.27907391157131       -0.12416042206627
H            6.44375859498892        3.08333786838861       -0.18617124731098
H            6.89670626477375        0.07758829537114        0.13664505521752
H            6.36175643591905        0.87472090520864       -1.34210896698790
H            4.85039294656325        0.86287174143560        1.30743508929830
H            4.31834553334104        1.67923632800370       -0.16159295435608
H            4.77369393990643       -1.32583360992725        0.11232354233961
H            4.23154916688310       -0.50358304005311       -1.34962183632629
H            2.21964273780593        0.31684773287947       -0.13086436673837
H            2.74353740479098       -0.54977100284212        1.31353073545569
H            2.66933762729220       -2.69408146656737        0.02358180867447
H            2.04865870134069       -1.81639212413494       -1.37336953713892
H            0.67521016632647       -1.97369119013166        1.34800386873690
H            0.28203264668002       -2.98275776747534       -0.04274918566638
H           -0.30589998264589       -0.93097459645199       -1.34595453994321
H            0.00743505333763        0.05036517809047        0.08592653395465
H           -1.74844588877958       -1.20390706324078        1.32848922570895
H           -2.09179624808790       -2.14761484999754       -0.12024284194541
H           -2.33982244454494        0.88517554421468        0.10787182370372
H           -2.69379230295799       -0.05972278042931       -1.33724244983120
H           -4.12551026811242       -0.34513475307711        1.34186494472645
H           -4.49151154630765       -1.26586197698808       -0.11598324844904
H           -4.69746786811967        1.76651960344390        0.15601164179537
H           -5.06226176204399        0.84987421721150       -1.30482489028547
H           -6.86812917299991       -0.36079593532140       -0.10110111179849
H           -6.49567460062079        0.53726555125008        1.36957604887328
H           -7.07790812684650        2.67230545288579        0.21489936172848
H           -7.45013518998817        1.77549517106588       -1.25703114467898
H           -8.43448614402644        1.54440196734377        0.18903811740750
