50        
         -7.28521459
C 0.614876 -1.807253 2.286761
C 1.772789 -2.550499 1.639707
C 1.621624 -2.720727 0.123717
C 1.608627 -1.406153 -0.664194
C 2.886153 -0.582943 -0.496806
C 2.942796 0.661249 -1.388949
C 1.812124 1.666636 -1.145832
C 1.731574 2.159214 0.300134
C 0.730168 3.299984 0.511608
C -0.695767 2.985533 0.048283
C -1.292954 1.733923 0.690808
C -2.741756 1.485972 0.269512
C -3.311951 0.160433 0.783352
C -2.634301 -1.083202 0.197960
C -2.775214 -1.206377 -1.320237
C -2.160294 -2.485862 -1.864952
H 0.733471 -1.727510 3.370316
H -0.333379 -2.315092 2.099714
H 0.522392 -0.791724 1.899003
H 2.717316 -2.035922 1.859233
H 1.879787 -3.538661 2.110361
H 2.434766 -3.352792 -0.257754
H 0.701562 -3.284368 -0.079609
H 0.741957 -0.806239 -0.367207
H 1.454942 -1.612286 -1.731971
H 3.752868 -1.226214 -0.699921
H 2.998015 -0.285261 0.552190
H 2.937069 0.348007 -2.441488
H 3.906512 1.168490 -1.246380
H 1.933574 2.531488 -1.811839
H 0.854051 1.220063 -1.437532
H 1.475982 1.321254 0.959080
H 2.731003 2.476696 0.626553
H 1.093209 4.196474 -0.008763
H 0.709130 3.574936 1.574739
H -1.352377 3.842157 0.251581
H -0.714123 2.872769 -1.043021
H -1.229622 1.806930 1.783634
H -0.681818 0.865027 0.427616
H -3.362133 2.323834 0.615135
H -2.813578 1.520202 -0.823879
H -4.387232 0.111954 0.565975
H -3.238034 0.142646 1.878810
H -3.044507 -1.987151 0.668216
H -1.571671 -1.089845 0.462614
H -3.838621 -1.153228 -1.589996
H -2.313387 -0.337283 -1.806762
H -2.281536 -2.571765 -2.947501
H -2.617326 -3.368604 -1.412874
H -1.091182 -2.532331 -1.651155
