50
 energy: -51.633179716843 gnorm: 0.000203173342 xtb: 6.6.1 (8d0f1dd)
C            0.74379765678311       -1.96499956044404        2.30362850405941
C            1.90541285432173       -2.65954194883259        1.60274019264660
C            1.74062856839915       -2.73679184364377        0.08349085707200
C            1.67924024477708       -1.38347710105625       -0.62764599760395
C            2.94058523742763       -0.54548519111638       -0.43007105085308
C            2.99050432326945        0.69781810314437       -1.32076154750435
C            1.82704396547776        1.67272452415041       -1.12627218491916
C            1.70214955182234        2.18177016125566        0.30811291090485
C            0.69249446035116        3.32115068800408        0.46330459341164
C           -0.72427304534143        2.99609065961103       -0.01546378371060
C           -1.32728179006636        1.75657095378398        0.64123493850884
C           -2.77750755141181        1.54672037453263        0.21186974589123
C           -3.38739029255018        0.24591980885730        0.73822292476614
C           -2.74277429490707       -1.03429997904848        0.20202284916424
C           -2.84229697288801       -1.18503168119284       -1.31430011942870
C           -2.30279132138600       -2.53205247272840       -1.78007978000260
H            0.87225237350876       -2.01245937378051        3.38284614895004
H           -0.19816432574632       -2.44740784370136        2.05026567092320
H            0.68336446325031       -0.91720920893768        2.02062245759471
H            2.83737943133736       -2.14686404571737        1.84622807239349
H            1.98698723065828       -3.67974325288680        1.98645772784016
H            2.57627399958725       -3.31073171921220       -0.32565845033249
H            0.82373808522926       -3.29002471019372       -0.13880025685124
H            0.80832014599873       -0.83115802284857       -0.27514747755658
H            1.53983866461908       -1.56469521702060       -1.69703637341080
H            3.81210380835411       -1.16465732855613       -0.65976607346551
H            3.02295507846071       -0.24037906399769        0.61324036381035
H            3.00503143587366        0.38269364762869       -2.36760783526450
H            3.92862836748429        1.22352600526389       -1.12349536827971
H            1.98211502292629        2.52691979137821       -1.79080364714197
H            0.89960258508701        1.18724833704609       -1.43019033578454
H            1.41807266846035        1.36264627699280        0.96895100146625
H            2.67885653375879        2.54407902734082        0.64016693193259
H            1.05078210817314        4.19079169370270       -0.09380882242025
H            0.65259485076876        3.60188825871912        1.51914184310057
H           -1.36282114136558        3.85736060578764        0.19885533907252
H           -0.72047688023992        2.85951137104747       -1.09880568602905
H           -1.27922647385964        1.85479181634201        1.72851665101708
H           -0.74240115371847        0.88292273001212        0.35735123553932
H           -3.37903779159072        2.38267044328841        0.57851504631255
H           -2.83633333111021        1.56253862736804       -0.87794120326444
H           -4.44940327388941        0.23394434167924        0.47934891553956
H           -3.31480125016003        0.23979152088060        1.82894073736420
H           -3.24265491753439       -1.88633685086171        0.67083283088239
H           -1.69386297625326       -1.07556180977908        0.49866027522997
H           -3.88698369886460       -1.08574164212126       -1.61872800167860
H           -2.27537559346703       -0.39142344348228       -1.80357583825962
H           -2.38384277232057       -2.62479441226101       -2.86085340696555
H           -2.86019256018192       -3.34742595432180       -1.32346200818888
H           -1.25530291282217       -2.63721033339188       -1.50529347686974
