35
 energy: -35.812633286698 gnorm: 0.000952197769 xtb: 6.6.1 (8d0f1dd)
C           -2.54879501498213        2.58481428368716       -0.21930803125636
C           -2.22944385513663        1.24305051061082        0.42778823092047
C           -2.67966900435945        0.07332027696307       -0.44513061227245
C           -2.51610164452624       -1.29032140009158        0.23012951068294
C           -1.07416390332487       -1.66214984191705        0.58061436577599
C           -0.19431739397797       -1.87602949287693       -0.64851614040746
C            1.25339950462614       -2.22815744879266       -0.30151339183963
C            2.01442275323212       -1.14212538557735        0.46313135567653
C            2.07008374685575        0.19619383274221       -0.27004061744175
C            2.95697242800732        1.20735753421935        0.45191940607868
C            2.94547654763779        2.56338871133292       -0.24361171257609
H           -2.20778426700033        3.40414844818410        0.40983079457531
H           -3.62058545193414        2.69197178960080       -0.37079121900838
H           -2.05834501669549        2.66842920454887       -1.18681903174473
H           -1.15409895177837        1.18386551529493        0.60203960633861
H           -2.72711464945130        1.18005433277879        1.39810748691819
H           -2.12812602749096        0.09138395578161       -1.38677200254968
H           -3.73690171703090        0.20731709730928       -0.68877311079559
H           -2.92896859306551       -2.05801764140769       -0.42939848207420
H           -3.10793422848363       -1.29383951198833        1.14923169831116
H           -1.08663092816172       -2.58482681305841        1.16666169072924
H           -0.64888454568109       -0.88254211918448        1.21125732893727
H           -0.20332406482528       -0.98310037596579       -1.27272222116389
H           -0.61432133189520       -2.69209072058122       -1.24249814245760
H            1.78784912236862       -2.43822526900336       -1.23161062697183
H            1.26252793381789       -3.14296608443023        0.29658552629695
H            1.56390831821821       -0.99636168872820        1.44674525852829
H            3.03585132539606       -1.49565598217934        0.62735927353132
H            2.45100602678174        0.03966551696794       -1.28193644790039
H            1.06577903195031        0.61375417947663       -0.35396092794241
H            2.60619042063443        1.32482286130861        1.47983875771364
H            3.98016989208334        0.82812034210465        0.49458875138202
H            1.93635616384893        2.96861347718080       -0.27103934882010
H            3.30321041991215        2.46997643129476       -1.26643042340084
H            3.58424475127026        3.27051494204061        0.27988816107138
