41
 energy: -42.142940721355 gnorm: 0.000474436448 xtb: 6.6.1 (8d0f1dd)
C            7.03810048673483       -0.60566897287288        0.12814840925958
C            5.59299059584619       -0.78177117132457       -0.32118797139226
C            4.70076855520356        0.35536725880382        0.17065216093602
C            3.24994521689744        0.18035467729492       -0.27156912932716
C            2.36136385561985        1.31772281638307        0.22749995671575
C            0.92294583068978        1.23326668845739       -0.28413491285093
C            0.13419223954732        0.06734358114825        0.30804359173587
C           -1.31272830752928        0.05651214651613       -0.18014383686791
C           -2.10823406295859       -1.09999788879102        0.42181692038043
C           -3.51585418463005       -1.23594385023661       -0.15944246579303
C           -4.44045176605402       -0.07816129523581        0.20957421407967
C           -5.85918370174813       -0.29366264142868       -0.31225225113043
C           -6.77719083720639        0.86890763454443        0.04450624520638
H            7.65520570028839       -1.42542799891604       -0.23266184575103
H            7.09944092881888       -0.58219947723677        1.21414636224934
H            7.44639012652601        0.32642999044922       -0.25681496975291
H            5.55478153380892       -0.82322918917023       -1.41238016489904
H            5.20845328647020       -1.73140961107389        0.05858509019776
H            5.08415110075515        1.30466054183134       -0.21189569630619
H            4.74223419393969        0.39941977756618        1.26183485041806
H            2.87767653282234       -0.77320842935715        0.10703639146036
H            3.20806595272622        0.14395426694114       -1.36307995179434
H            2.79352687246398        2.26671273081926       -0.10084010979285
H            2.35591733758928        1.32006774241001        1.32017792750893
H            0.93340854650698        1.14569686647345       -1.37335151207166
H            0.40782486663737        2.16469618022836       -0.03467145117615
H            0.14682285621836        0.14089655648254        1.39834709150737
H            0.60800971533780       -0.87663395423253        0.03311888638202
H           -1.78338695718544        1.00534261264856        0.08345271174399
H           -1.32298904917083       -0.02886693292776       -1.26964463918974
H           -2.17552491579249       -0.96799823850187        1.50442412702432
H           -1.56470491921097       -2.03052981260853        0.23761744094007
H           -3.44934600034546       -1.31173181996110       -1.24760904730015
H           -3.95741197643016       -2.16625628888930        0.20778939723605
H           -4.04990711673341        0.85257471218623       -0.20555215913444
H           -4.46896683625642        0.02764310862298        1.29692200507949
H           -6.26333068418025       -1.21755949402452        0.10857436564033
H           -5.82874824663477       -0.41174441640042       -1.39810010310669
H           -6.83672414343495        0.99037012672273        1.12407214959861
H           -6.40162089051334        1.79629755286021       -0.38300652338578
H           -7.78108819929206        0.69730192995030       -0.33723772222330
