14        
         -1.95861361
C -1.563238 -0.030642 -0.567324
C -0.678152 0.357259 0.607470
C 0.678145 -0.357389 0.607365
C 1.563270 0.030787 -0.567306
H -1.108886 0.244587 -1.520908
H -1.736524 -1.108501 -0.592030
H -2.540330 0.457018 -0.522835
H -0.513538 1.443338 0.608959
H -1.206178 0.148287 1.549100
H 0.513527 -1.443532 0.608624
H 1.206178 -0.148789 1.549113
H 2.539429 -0.458697 -0.524261
H 1.107868 -0.242223 -1.520853
H 1.738151 1.108328 -0.590701
