14
 energy: -13.664175670127 gnorm: 0.000793388670 xtb: 6.6.1 (8d0f1dd)
C           -1.56969525928793       -0.03365501620153       -0.56813241336163
C           -0.67297148720096        0.36288448437946        0.59980127842175
C            0.67297341088127       -0.36316566670356        0.59959236809623
C            1.56962938866498        0.03385282930316       -0.56822281217654
H           -1.12689885484731        0.25716825513958       -1.51695202726521
H           -1.72895412128398       -1.10990983682291       -0.57677016237087
H           -2.53761343193052        0.45532738514244       -0.48300835139895
H           -0.49960976429764        1.44114326609038        0.57373015335800
H           -1.19148783119341        0.13458259151408        1.53419950076941
H            0.49956327822119       -1.44140780897940        0.57304039949626
H            1.19157076654983       -0.13531796982924        1.53405725648807
H            2.53715265317594       -0.45606395464572       -0.48395078186976
H            1.12624429836293       -0.25558614818243       -1.51718916633201
H            1.72981589691755        1.10997706307971       -0.57578224058271
