  35
         -5.06564175
 C         -5.7523439356        1.1957468826        0.1364547314
 C         -4.3188311240        1.0856447894       -0.3589756891
 C         -3.5820562604       -0.1206430503        0.2254833865
 C         -2.1372328223       -0.2331604108       -0.2618134083
 C         -1.4066587147       -1.4455407712        0.3164451331
 C          0.0267382575       -1.6020046738       -0.2001923753
 C          0.9638445593       -0.4796452821        0.2475218368
 C          2.4035130127       -0.6803138995       -0.2258667303
 C          3.3380435913        0.4463651520        0.2148960251
 C          4.7760091957        0.2576485645       -0.2716765304
 C          5.6941852353        1.3918640448        0.1556576290
 H         -6.3283464918        0.3033496106       -0.1178738202
 H         -6.2714764424        2.0555591092       -0.2946244338
 H         -5.7884347118        1.3017679318        1.2228955515
 H         -4.3007706298        1.0248322027       -1.4558063646
 H         -3.7634487031        2.0023312805       -0.1176204263
 H         -4.1273988475       -1.0401898916       -0.0218059198
 H         -3.5982199707       -0.0668026015        1.3213949650
 H         -1.5968261905        0.6867698764       -0.0090911831
 H         -2.1205601983       -0.2815220814       -1.3577049012
 H         -1.9866933495       -2.3507036810        0.0921692848
 H         -1.3962952828       -1.3771637454        1.4113661402
 H          0.0182524192       -1.6553148904       -1.2960476201
 H          0.4407887625       -2.5643253946        0.1293677544
 H          0.9439352069       -0.3979206973        1.3415846044
 H          0.5938245956        0.4860947697       -0.1172169904
 H          2.7834117915       -1.6413358073        0.1431658214
 H          2.4226472153       -0.7678370099       -1.3195020813
 H          2.9509555559        1.4078957819       -0.1459825527
 H          3.3264341397        0.5287064155        1.3093121573
 H          5.1615628397       -0.7019992347        0.0989014520
 H          4.7791124039        0.1603452300       -1.3659547534
 H          5.3417288887        2.3517346163       -0.2283760381
 H          6.7171269024        1.2511914895       -0.2032922394
 H          5.7365914184        1.4776990147        1.2436988551
