29        
         -4.17848840
C -5.084733 0.378088 0.084142
C -3.824870 -0.472558 0.040216
C -2.548239 0.365723 -0.041063
C -1.275000 -0.480327 -0.044629
C -0.000031 0.361580 -0.093299
C 1.275039 -0.480355 -0.046890
C 2.548154 0.365886 -0.037425
C 3.824659 -0.472425 0.045493
C 5.085002 0.377899 0.079395
H -5.990373 -0.230559 0.144709
H -5.169501 1.005462 -0.805679
H -5.080433 1.045662 0.948490
H -3.861846 -1.162464 -0.813815
H -3.776382 -1.120909 0.925720
H -2.575997 0.996378 -0.938507
H -2.518075 1.070096 0.799723
H -1.293250 -1.175054 -0.893645
H -1.257825 -1.120624 0.846224
H 0.000646 1.073132 0.741930
H -0.000785 0.984220 -0.996748
H 1.294559 -1.171204 -0.899069
H 1.256750 -1.124760 0.840983
H 2.515593 1.068430 0.804814
H 2.578332 0.998434 -0.933463
H 3.778710 -1.115122 0.935259
H 3.858627 -1.167761 -0.804254
H 5.167321 0.998722 -0.815252
H 5.990531 -0.230781 0.141346
H 5.083614 1.051868 0.938777
