26        
         -3.73364484
C -3.544433 -0.292295 1.192817
C -2.640635 -0.582388 0.004781
C -1.394427 0.304268 -0.020765
C -0.481958 0.015470 -1.213249
C 0.736032 0.941004 -1.293465
C 1.691163 0.833839 -0.100510
C 2.321310 -0.551083 0.060820
C 3.327360 -0.607961 1.199823
H -3.018245 -0.448159 2.137057
H -4.430395 -0.932015 1.201550
H -3.887784 0.744503 1.184105
H -2.334665 -1.637450 0.010558
H -3.196738 -0.454313 -0.933854
H -1.693502 1.359945 -0.033058
H -0.839147 0.175881 0.916184
H -0.155694 -1.030963 -1.178284
H -1.070034 0.093522 -2.137836
H 1.295568 0.734619 -2.215657
H 0.387726 1.977581 -1.394838
H 2.492425 1.578893 -0.198405
H 1.168509 1.106928 0.824064
H 1.534039 -1.299093 0.221674
H 2.802020 -0.841946 -0.882987
H 2.856790 -0.364824 2.154936
H 4.136761 0.109391 1.048407
H 3.780628 -1.597692 1.299269
