26        
         -3.73476334
C -4.464259 0.265266 -0.000673
C -3.171075 -0.535016 -0.009190
C -1.925854 0.352937 0.009088
C -0.621818 -0.444690 0.001199
C 0.621814 0.444274 0.002007
C 1.925995 -0.353166 0.007457
C 3.170912 0.535093 -0.010352
C 4.464279 -0.264762 0.000621
H -4.525099 0.927212 -0.867181
H -4.533950 0.894036 0.889506
H -5.346803 -0.379023 -0.017231
H -3.142631 -1.217732 0.850920
H -3.136798 -1.189430 -0.890901
H -1.946344 1.033644 -0.851211
H -1.952312 1.007472 0.889293
H -0.595462 -1.116717 0.868080
H -0.600336 -1.107365 -0.872985
H 0.599812 1.109170 -0.870442
H 0.595859 1.114167 0.870467
H 1.953281 -1.009027 0.886633
H 1.946063 -1.032416 -0.853895
H 3.137457 1.188407 -0.892841
H 3.141317 1.218712 0.849000
H 4.532875 -0.892854 0.891443
H 5.346641 0.379905 -0.015169
H 4.526509 -0.927401 -0.865367
