26
 energy: -26.322630910318 gnorm: 0.000610103641 xtb: 6.6.1 (8d0f1dd)
C           -4.44084015228235        0.26933814637343       -0.00001567001749
C           -3.14995880261261       -0.53984106308522       -0.00891507155668
C           -1.91446953196747        0.35704442358810        0.00776320302213
C           -0.61770754458932       -0.44871327261912        0.00130327136206
C            0.61768254017349        0.44843883957828        0.00197436024507
C            1.91452208996160       -0.35720586901511        0.00650741205582
C            3.14985262273406        0.53991255993307       -0.00966533804176
C            4.44091704450714       -0.26895027566861        0.00096182499984
H           -4.48934984769957        0.92009078368657       -0.87063801302447
H           -4.49683105595097        0.88902476189300        0.89253229597488
H           -5.30667709434072       -0.38881603144143       -0.01529268316959
H           -3.12870780416205       -1.19857970597418        0.86262326103777
H           -3.12405655977685       -1.17147598440090       -0.90017372480785
H           -1.93527778333891        1.01447462616775       -0.86505642476279
H           -1.94133872244764        0.99075246897845        0.89775556783916
H           -0.59250930278847       -1.09860474186004        0.87966256139430
H           -0.59653535454635       -1.09060214608205       -0.88303906207691
H            0.59619721898118        1.09207031320347       -0.88109627596751
H            0.59273494372280        1.09660025676348        0.88161738560355
H            1.94200180814498       -0.99209379620285        0.89564086541333
H            1.93490578930688       -1.01346535318650       -0.86719908870597
H            3.12460719911069        1.17099029132358       -0.90133386715196
H            3.12767340566101        1.19919046092699        0.86144649584076
H            4.49620113167481       -0.88800173553988        0.89399425156771
H            5.30660258009711        0.38941130897982       -0.01392127207035
H            4.49043418005387       -0.92029326971124       -0.86916026647260
