32
 energy: -32.650553428374 gnorm: 0.000671801787 xtb: 6.6.1 (8d0f1dd)
C            5.27349534789792       -0.84484634522384       -0.13874197728088
C            3.81914205487266       -0.92209269005088        0.30961254440403
C            3.00268993163350        0.26790186972805       -0.18876006178187
C            1.54669577484921        0.18789122852437        0.26347893673029
C            0.72088335484542        1.36353649357264       -0.25372275037014
C           -0.72008973007361        1.36197696468098        0.25857070194027
C           -1.54931383642025        0.19542286739616       -0.27343870560491
C           -3.00091109742862        0.26527941219252        0.19435218820003
C           -3.82293091904393       -0.91276826588902       -0.32284609885937
C           -5.26995430962428       -0.85089695816759        0.15092768248514
H            5.33699755558167       -0.83084436478293       -1.22468044773709
H            5.74213710198976        0.05989418030434        0.24234643006513
H            5.83348881551831       -1.70228383019777        0.22717585353508
H            3.37293425012236       -1.84605585002272       -0.06557402089664
H            3.77694674514603       -0.95504547652159        1.40076092568880
H            3.44877782736876        1.19361339548269        0.18268383650033
H            3.04002843522731        0.29931359483827       -1.28035732299022
H            1.11940158250095       -0.74970180325083       -0.09574980843596
H            1.50865152650556        0.17389548371629        1.35543184264019
H            0.71507383085226        1.34798088447957       -1.34618446784097
H            1.20218304586118        2.29356560315286        0.05925376832411
H           -1.19923626537589        2.29732705417376       -0.04157374025494
H           -0.71377621248375        1.33175768158813        1.35074913974582
H           -1.52135324340280        0.20211873210422       -1.36575327193775
H           -1.11776093496911       -0.74825679829905        0.06405679143996
H           -3.45026602372877        1.19941480661974       -0.15114992098938
H           -3.02740569836492        0.27151298197536        1.28671303691330
H           -3.79821352230326       -0.91637878736946       -1.41500312962965
H           -3.36906473682576       -1.84544470502277        0.02025722149070
H           -5.74636027969837        0.06285652710438       -0.19763244019141
H           -5.83437145722039       -1.69930489703668       -0.22896327338533
H           -5.31566575162585       -0.86658598035811        1.23774082363900
