26
 energy: -26.320884059257 gnorm: 0.000496534866 xtb: 6.6.1 (8d0f1dd)
C            3.58585452538065        0.11159335354605       -1.18247729058356
C            2.67036787484107        0.56639402668439       -0.05261914056524
C            1.40510141883137       -0.28383503757410        0.03597596141013
C            0.48991320397127        0.17905740708872        1.16717106944389
C           -0.72814294086480       -0.72204811750672        1.37758933017926
C           -1.69133302709093       -0.79695267451752        0.19178979294604
C           -2.33842087256321        0.54183711776209       -0.15536284988934
C           -3.39573451713932        0.38789976507947       -1.24210754995876
H            3.90630617614560       -0.91605152589551       -1.02416731724512
H            4.47059646959072        0.74189115925136       -1.23676655867872
H            3.06844477390050        0.16419231608502       -2.13819029455719
H            3.21053335486937        0.51095977736636        0.89564255731066
H            2.39025613502915        1.61075374747574       -0.21111029110846
H            0.87557454674640       -0.22597635082622       -0.91660459233323
H            1.68263894402545       -1.32813233655053        0.20017668680828
H            1.06522289597820        0.19414184622472        2.09707752127070
H            0.16345186310686        1.20244038380749        0.97361890377479
H           -0.37926097447120       -1.73298519082910        1.60459538652532
H           -1.27801542007022       -0.36106009690529        2.25090809010804
H           -1.16961097939576       -1.18523847749399       -0.68466680976220
H           -2.48107972857899       -1.51115399093229        0.44082721115158
H           -2.79890490412471        0.96275983169961        0.74179585682060
H           -1.57627628167068        1.24307180075406       -0.49911933041172
H           -3.83887796708694        1.35074660682698       -1.48650114209860
H           -4.18849945442791       -0.28086491357429       -0.91312114559345
H           -2.95471570886083       -0.02594063063438       -2.14666832605861
