41        
         -5.95226592
C 3.520389 -2.694600 -1.078354
C 3.731962 -1.193996 -0.953819
C 2.480462 -0.459041 -0.471691
C 2.686982 1.051336 -0.345116
C 1.423495 1.804747 0.080108
C 0.971774 1.480724 1.504715
C -0.271590 2.259459 1.946608
C -1.502191 2.024327 1.065196
C -1.924948 0.557568 0.983611
C -3.140041 0.338284 0.083387
C -3.567568 -1.128617 -0.022309
C -2.489032 -2.059611 -0.589144
C -2.024153 -1.668734 -1.983530
H 4.422476 -3.210206 -1.416962
H 2.723562 -2.923439 -1.789239
H 3.231098 -3.133278 -0.121055
H 4.563097 -0.983905 -0.266780
H 4.050491 -0.775127 -1.918133
H 2.163048 -0.877317 0.491018
H 1.647276 -0.661126 -1.156786
H 3.051501 1.442043 -1.304676
H 3.493642 1.252452 0.370775
H 0.616740 1.575359 -0.626186
H 1.581554 2.887986 -0.006433
H 1.802004 1.676160 2.196622
H 0.782146 0.405339 1.596630
H -0.033889 3.331331 1.968572
H -0.519616 1.997672 2.983889
H -2.347192 2.622898 1.431073
H -1.311650 2.402140 0.053282
H -2.132301 0.173039 1.989941
H -1.086763 -0.043348 0.614075
H -3.975478 0.948217 0.452433
H -2.925674 0.734628 -0.916580
H -4.467318 -1.203953 -0.647714
H -3.876820 -1.482909 0.970193
H -2.867786 -3.091861 -0.604112
H -1.630801 -2.089689 0.095074
H -2.863520 -1.623530 -2.680448
H -1.546470 -0.687134 -1.987671
H -1.298538 -2.378691 -2.388470
