41
 energy: -42.140452574803 gnorm: 0.000343918106 xtb: 6.6.1 (8d0f1dd)
C            3.52303596946639       -2.68216501709614       -1.09492367268045
C            3.73797975602015       -1.17954566714004       -0.95860307757982
C            2.48182024919048       -0.46935069343066       -0.45969174363747
C            2.69752724987406        1.03504684680813       -0.30250609410802
C            1.42216351895985        1.78536786972569        0.08497764224338
C            0.97631050049170        1.50350218064136        1.51822705287703
C           -0.27765211932980        2.27854650789967        1.92949479386575
C           -1.50782356194068        2.02010145338495        1.05609164836257
C           -1.89635665722147        0.54612179170451        0.96786061489613
C           -3.12454125221852        0.34296065948139        0.08425180705876
C           -3.56496072555388       -1.11838608771395       -0.02243323583110
C           -2.51139788939591       -2.07063027630293       -0.59300938011916
C           -2.04246755818504       -1.68702270252424       -1.99160214428899
H            4.42769095365712       -3.16850134169429       -1.45270194984899
H            2.72006194258760       -2.89052835120209       -1.79896948913128
H            3.25627255813724       -3.11836144860418       -0.13450728999212
H            4.55841492904207       -0.99223489310185       -0.26192192788098
H            4.02677962224170       -0.76544593026281       -1.92753275133258
H            2.18964476117008       -0.90359586806550        0.49811042160209
H            1.66726243660669       -0.64443304959108       -1.16720616786269
H            3.06463794312996        1.43461200245988       -1.25147020263188
H            3.46898552673422        1.21467271489545        0.45003907278898
H            0.63087280002368        1.50435276263764       -0.61145402832548
H            1.59341605320804        2.85934436202734       -0.02334343006006
H            1.78699825027818        1.77852843734751        2.19814105786975
H            0.79536054991292        0.43635237773496        1.64629591490819
H           -0.05761477771544        3.34896136442175        1.90421361800702
H           -0.51767655496719        2.01697369256603        2.96333411109980
H           -2.34680870393959        2.58594895521365        1.46973041270348
H           -1.32768739483717        2.40372321224989        0.04986914027835
H           -2.09827567800933        0.16036211162871        1.97002914303132
H           -1.06301915234975       -0.01782985575656        0.55131741053584
H           -3.95690125406701        0.92275436544548        0.49201195822605
H           -2.91746290395401        0.73524624919927       -0.91326340447139
H           -4.45496743358414       -1.16287520730122       -0.65555937399861
H           -3.85006771221428       -1.47506460847747        0.97066074982313
H           -2.94605982302129       -3.07285471896625       -0.62855225752512
H           -1.65204239395571       -2.11595482707228        0.07815749501803
H           -2.89147698508259       -1.58729384239147       -2.66475749444357
H           -1.50167011816603       -0.74428900626667       -1.97782105892548
H           -1.37797111707947       -2.45152968063689       -2.38898792930532
