  29
         -4.17788406
 C         -4.7426433967       -0.6483551397        0.1514374159
 C         -3.3023324086       -0.7894393583       -0.3154415229
 C         -2.3971298592        0.3247601111        0.2123824480
 C         -0.9499522527        0.1937620955       -0.2629892039
 C         -0.0411506402        1.2968311029        0.2808930296
 C          1.3979976109        1.2160245015       -0.2365081354
 C          2.1446040153       -0.0372094835        0.2224376069
 C          3.5954157588       -0.0787624501       -0.2601149598
 C          4.3256505519       -1.3370045767        0.1830101844
 H         -5.3787566927       -1.4514245378       -0.2291330625
 H         -5.1749875267        0.2980265652       -0.1806256778
 H         -4.8082257250       -0.6665247226        1.2414681914
 H         -3.2599114647       -0.8016167928       -1.4131266988
 H         -2.8974568950       -1.7627077203       -0.0060189653
 H         -2.7981543103        1.3002281197       -0.0902538443
 H         -2.4255126063        0.3339601143        1.3092537598
 H         -0.9201185565        0.1990811225       -1.3598208037
 H         -0.5614313078       -0.7895164926        0.0279477091
 H         -0.0394262280        1.2599508311        1.3774527838
 H         -0.4757304533        2.2733289203        0.0284349768
 H          1.9612370808        2.1033473798        0.0822336847
 H          1.3961156474        1.2577210176       -1.3328883174
 H          1.6214540100       -0.9347044437       -0.1283900761
 H          2.1182102302       -0.1017203977        1.3174061398
 H          3.6156450461        0.0043493509       -1.3553634880
 H          4.1243077976        0.8136722254        0.1012553926
 H          5.3612515851       -1.3560825475       -0.1654765669
 H          3.8344549988       -2.2344037852       -0.1994892152
 H          4.3440553068       -1.4205553448        1.2717820292
