38
 energy: -38.979387451505 gnorm: 0.000475558241 xtb: 6.6.1 (8d0f1dd)
C            6.56611167874424        0.79220285343226        0.18790658960968
C            5.14077225868727        1.05537341868774       -0.28252315056838
C            4.17373164469932       -0.02467789869615        0.19625957071450
C            2.74476096186301        0.23757053877242       -0.27199632357740
C            1.77324152481824       -0.84044278821969        0.20224803348325
C            0.34526630988566       -0.56315881677661       -0.26173279607851
C           -0.63079674873019       -1.63218644813670        0.22422633658400
C           -2.05626689396932       -1.43312005177056       -0.29293843846930
C           -2.73475231297031       -0.18475229519847        0.26661110389810
C           -4.18421291736225       -0.06442005458444       -0.19808447615697
C           -4.85398902167990        1.19565647617553        0.34498425324829
C           -6.29996441655336        1.31985855261047       -0.11952954063885
H            7.23659249079612        1.57297900779737       -0.16364451257220
H            6.92228776932981       -0.16312042266163       -0.19157265458627
H            6.60978669925773        0.76543301430248        1.27460089135243
H            4.80886691090267        2.02677346726518        0.09131768401808
H            5.12088317572663        1.09786120961411       -1.37398739424888
H            4.19365258863484       -0.06827752688734        1.28788230186068
H            4.50417970578131       -0.99653075894505       -0.17815872150420
H            2.41558020497031        1.20932795312354        0.10417355465094
H            2.72580570146817        0.28438701358776       -1.36355452542362
H            2.09706327739421       -1.81223892589734       -0.17808629628105
H            1.79416627255373       -0.89075660219478        1.29356482019708
H            0.32222179045945       -0.52364799471935       -1.35343415794841
H            0.03853071999365        0.41472006751733        0.11281722398929
H           -0.27203947939741       -2.60957040228067       -0.10843388548056
H           -0.64182636609564       -1.64077741710905        1.31675125589705
H           -2.65210993664711       -2.30740906253394       -0.01859798130086
H           -2.03903150642085       -1.37647008712994       -1.38395821698276
H           -2.18946406756338        0.70547776830761       -0.05111022409909
H           -2.70805582393559       -0.21923709309072        1.35847600636747
H           -4.21234515475778       -0.04554700680397       -1.29029059085957
H           -4.74569540650522       -0.94235139305843        0.13055880817705
H           -4.29123217308170        2.07211852133436        0.01515965774315
H           -4.82414629966026        1.17643443192447        1.43691024270684
H           -6.88321947293812        0.46513445567836        0.21624044688416
H           -6.34921762718161        1.36131669628004       -1.20553539559622
H           -6.75432730014133        2.22380358912061        0.27953790676955
