32        
         -4.62170870
C 5.583652 0.703397 -0.003647
C 4.393971 -0.235458 0.122306
C 3.053607 0.486110 -0.025207
C 1.851799 -0.450957 0.095617
C 0.514802 0.268611 -0.081538
C -0.687908 -0.668861 0.024294
C -2.021472 0.044700 -0.199469
C -3.223821 -0.895932 -0.108743
C -4.558551 -0.217210 -0.433879
C -4.950990 0.854612 0.571598
H 6.535917 0.177168 0.099040
H 5.589611 1.205721 -0.973370
H 5.555039 1.482397 0.761150
H 4.460731 -1.033422 -0.629774
H 4.422120 -0.755331 1.089613
H 2.977947 1.281886 0.726398
H 3.019951 1.004611 -0.991634
H 1.937000 -1.255677 -0.645385
H 1.873472 -0.957191 1.068811
H 0.498608 0.778462 -1.053005
H 0.424859 1.070767 0.661670
H -0.690136 -1.159092 1.005916
H -0.581871 -1.485370 -0.700947
H -2.125913 0.859389 0.527166
H -2.013653 0.536602 -1.180205
H -3.268993 -1.334775 0.895828
H -3.062007 -1.746133 -0.784871
H -4.506214 0.216888 -1.441652
H -5.353364 -0.974901 -0.491878
H -5.927774 1.289994 0.345815
H -5.000841 0.447182 1.583521
H -4.229291 1.673433 0.588583
