32
 energy: -32.650531999113 gnorm: 0.000397575091 xtb: 6.6.1 (8d0f1dd)
C            5.55505984005121        0.70377039502689       -0.00201799701550
C            4.36827444896495       -0.24376927385916        0.12465219749803
C            3.03710244657096        0.48781269877790       -0.02758199258726
C            1.84408343338648       -0.45696649235849        0.09317396624617
C            0.51527655991882        0.27210781561636       -0.08762959869480
C           -0.68001072115282       -0.67163394623782        0.01873196369768
C           -2.00299324723656        0.05808691932287       -0.20103898564556
C           -3.19926844350717       -0.88532607952140       -0.09817787144058
C           -4.53119980439088       -0.21329795921243       -0.43392114705990
C           -4.94019041976018        0.85170726016829        0.57728492762338
H            6.49194328275730        0.16207825348691        0.10529078504666
H            5.55013790318983        1.19235906380521       -0.97405914459633
H            5.51267635962446        1.47265830469924        0.76644768702708
H            4.44099881123826       -1.02036870078494       -0.64027189486427
H            4.39921397009626       -0.73667133075075        1.09907769914616
H            2.96210986591999        1.26418611692537        0.73762081711389
H            3.00767942292097        0.98209846870056       -1.00169929131962
H            1.92901918847888       -1.24277178580608       -0.66138849644321
H            1.86200399268684       -0.93935279507625        1.07341560039260
H            0.50265848997608        0.75867023008938       -1.06599408086032
H            0.42641696132438        1.05467662751504        0.66973459097816
H           -0.68448086108092       -1.14067728268638        1.00556297158901
H           -0.57770048407661       -1.46759339975962       -0.72298661032757
H           -2.09402040097851        0.85357380398360        0.54026016698561
H           -1.99611962645482        0.52343951819905       -1.18980234859615
H           -3.24808085789166       -1.29892452123929        0.91193647561355
H           -3.04637213233563       -1.71953415518762       -0.78782278155873
H           -4.46574941529312        0.23683372788922       -1.42723378285058
H           -5.30851428613720       -0.98047671151510       -0.47023595867673
H           -5.92222761828899        1.24881691929776        0.32994803275490
H           -4.98373122765324        0.42864597149677        1.57866310505116
H           -4.23370061336937        1.67746050857387        0.58217916966950
