  53
         -7.72884462
 C          3.0567544499       -2.4235053052        0.4186501172
 C          2.2630595708       -3.3633030693       -0.4759059144
 C          0.9217743524       -2.7798860028       -0.9334095557
 C         -0.0914445119       -2.6131311029        0.1999774198
 C         -1.4383784422       -2.0750619797       -0.2833586342
 C         -2.4606191667       -1.9191385042        0.8440637403
 C         -3.8137122537       -1.3699023960        0.3764464554
 C         -3.7406824861        0.0408767765       -0.2162731877
 C         -3.3499139446        1.1127378618        0.8038346323
 C         -3.0655522044        2.4822236345        0.1787662088
 C         -1.8859266468        2.4851376550       -0.8003702166
 C         -0.5732953391        2.0085760345       -0.1767704080
 C          0.5869137174        1.9758407820       -1.1718183545
 C          1.8626543012        1.3581493288       -0.5914938825
 C          2.5053516214        2.2002686248        0.5111889373
 C          3.7496900004        1.5527092581        1.1285571411
 C          4.9035135077        1.4033821717        0.1486710068
 H          4.0140039705       -2.8559307342        0.7205934567
 H          3.2719266909       -1.4830099461       -0.0919009937
 H          2.5107931161       -2.1789000612        1.3316276736
 H          2.0828820755       -4.3136680575        0.0446267035
 H          2.8688380437       -3.6304792437       -1.3538648170
 H          0.4810649803       -3.4174693724       -1.7115470262
 H          1.0894000889       -1.8114645802       -1.4208076963
 H          0.3126241193       -1.9445937368        0.9696504462
 H         -0.2393267539       -3.5750816781        0.7064699188
 H         -1.2791296739       -1.1140150422       -0.7854304589
 H         -1.8446756035       -2.7361360724       -1.0590103705
 H         -2.6013773687       -2.8921992341        1.3335678729
 H         -2.0430634758       -1.2737007352        1.6254581725
 H         -4.2384217626       -2.0608202637       -0.3639678900
 H         -4.5257204439       -1.3689284457        1.2122250886
 H         -3.0301006462        0.0435577162       -1.0492211236
 H         -4.7019683368        0.3141760395       -0.6719519186
 H         -2.4697680287        0.7850544436        1.3670662854
 H         -4.1432811628        1.1961033702        1.5588714272
 H         -2.8697472790        3.2147360667        0.9732302777
 H         -3.9708098707        2.8411549232       -0.3283510364
 H         -2.1209649985        1.8596473045       -1.6696884902
 H         -1.7425589233        3.4921826932       -1.2144261152
 H         -0.3229458855        2.6464504794        0.6791308143
 H         -0.7032727022        1.0053973078        0.2447770398
 H          0.7950399625        2.9912316725       -1.5310306388
 H          0.2736723717        1.4144352094       -2.0624169614
 H          1.6343043944        0.3604544114       -0.1976642636
 H          2.5924810305        1.1911979971       -1.3938587957
 H          2.7653135993        3.1878146809        0.1100071203
 H          1.7642858509        2.3964287934        1.2964347472
 H          3.4786456619        0.5712306585        1.5404773525
 H          4.0798896884        2.1421864969        1.9960749939
 H          5.1878424648        2.3682648035       -0.2764659677
 H          5.7918871209        0.9800388173        0.6242079992
 H          4.6426232795        0.7492848059       -0.6852218031
