17        
         -2.40184803
C -1.878057 0.660436 -0.342263
C -1.108314 -0.186513 0.660021
C 0.000211 -1.028764 0.019326
C 1.106913 -0.208922 -0.652944
C 1.879212 0.672078 0.317542
H -2.306875 0.042359 -1.134032
H -1.234039 1.399773 -0.822404
H -2.700406 1.206478 0.127883
H -1.807207 -0.846251 1.194957
H -0.678703 0.454879 1.440867
H -0.451731 -1.710659 -0.713657
H 0.453319 -1.681845 0.777292
H 0.675498 0.405061 -1.454394
H 1.804547 -0.887053 -1.165874
H 2.699091 1.201850 -0.173331
H 2.310649 0.081532 1.128262
H 1.236279 1.426496 0.774387
