  26
         -3.73476334
 C         -4.4642590745        0.2652658032       -0.0006733509
 C         -3.1710745285       -0.5350158644       -0.0091900574
 C         -1.9258540719        0.3529374561        0.0090883050
 C         -0.6218185033       -0.4446900560        0.0011989204
 C          0.6218137355        0.4442741457        0.0020072839
 C          1.9259954675       -0.3531657461        0.0074572536
 C          3.1709114779        0.5350925108       -0.0103518265
 C          4.4642789119       -0.2647621581        0.0006211889
 H         -4.5250992930        0.9272117343       -0.8671806069
 H         -4.5339499620        0.8940363023        0.8895063313
 H         -5.3468030205       -0.3790225157       -0.0172314097
 H         -3.1426308591       -1.2177321818        0.8509204701
 H         -3.1367977815       -1.1894294825       -0.8909012371
 H         -1.9463435338        1.0336437010       -0.8512106145
 H         -1.9523122378        1.0074724167        0.8892933666
 H         -0.5954621933       -1.1167172690        0.8680802467
 H         -0.6003357281       -1.1073652010       -0.8729850618
 H          0.5998118982        1.1091702244       -0.8704415347
 H          0.5958592747        1.1141670874        0.8704666302
 H          1.9532805884       -1.0090270391        0.8866328848
 H          1.9460627998       -1.0324155412       -0.8538949742
 H          3.1374568331        1.1884065860       -0.8928411251
 H          3.1413168244        1.2187124405        0.8490004693
 H          4.5328746388       -0.8928539258        0.8914427221
 H          5.3466407877        0.3799048702       -0.0151691006
 H          4.5265094405       -0.9274006147       -0.8653669462
