35
 energy: -35.814959036639 gnorm: 0.000518175850 xtb: 6.6.1 (8d0f1dd)
C           -5.73812385194049        1.17723867308800        0.14050094342395
C           -4.30313938174497        1.07638029869561       -0.36213174946555
C           -3.57430046394831       -0.12990612020993        0.22512053888526
C           -2.13194377945031       -0.21870650880491       -0.26749774126503
C           -1.39856124790737       -1.42158014267391        0.32151989378573
C            0.02928204075438       -1.57646505863940       -0.20410571767260
C            0.96581819835335       -0.46056510943331        0.25327743428078
C            2.39825483013512       -0.68384259329225       -0.22543466728817
C            3.32729078585072        0.44441013226999        0.21580939117006
C            4.75817727587236        0.24177030926907       -0.27560283383240
C            5.67249196606036        1.38111809011311        0.15859971869700
H           -6.29912220787916        0.28407638776067       -0.12596419755467
H           -6.23729798409381        2.03939845532729       -0.29571411583375
H           -5.75612694755757        1.28132000761242        1.22326390408442
H           -4.30480311773611        0.99953062760336       -1.45190470125887
H           -3.76170414671815        1.98746997747960       -0.09672945704093
H           -4.10896677284525       -1.04308957323705       -0.04731124464942
H           -3.57895277897372       -0.05851238118754        1.31549108099114
H           -1.61153346665112        0.70085214402654        0.00507411075852
H           -2.12703869312926       -0.29284285307088       -1.35770435510679
H           -1.96089968269775       -2.32681663425110        0.07881364972871
H           -1.37370198901486       -1.33213454915980        1.41018393899442
H            0.00990983258939       -1.60667743165791       -1.29612912277077
H            0.42876138348727       -2.53238820638313        0.14404005249672
H            0.95441644188104       -0.40543144013084        1.34448222688822
H            0.61354787558548        0.49781417377210       -0.13149233530038
H            2.76960703621306       -1.63370990758873        0.16676016022803
H            2.40679412834500       -0.75262429742270       -1.31598168725262
H            2.94702173872822        1.39414383951372       -0.16838843173170
H            3.32598767770372        0.50679004291840        1.30671555045895
H            5.14355370993893       -0.70280928199847        0.11500610034312
H            4.75765411172769        0.17235359901083       -1.36585516362872
H            5.31220202740809        2.32913868797332       -0.23520819076646
H            6.68505365404472        1.22106553098036       -0.20434495854229
H            5.70351515821552        1.45235482999319        1.24373066773967
