  26
         -3.73474924
 C          4.4637404894       -0.2652938385       -0.0405071128
 C          3.1713176696        0.5349832005        0.0062462771
 C          1.9258655587       -0.3528538760        0.0066521521
 C          0.6219283655        0.4447208474        0.0316395427
 C         -0.6217991393       -0.4442493776        0.0302678074
 C         -1.9258909242        0.3530666201        0.0059517827
 C         -3.1711278687       -0.5351125542        0.0068858976
 C         -4.4639522196        0.2648274260       -0.0405600023
 H          4.5452506532       -0.9356175826        0.8178665521
 H          5.3467034017        0.3786181820       -0.0393358440
 H          4.5114993804       -0.8858837137       -0.9379912956
 H          3.1569861394        1.1803895209        0.8951924990
 H          3.1236547765        1.2263982889       -0.8461590500
 H          1.9401150891       -1.0067415458       -0.8743192492
 H          1.9584243255       -1.0340405398        0.8661846792
 H          0.6060637181        1.1008290581        0.9108967689
 H          0.5898439132        1.1232943079       -0.8299380461
 H         -0.5890989634       -1.1215227985       -0.8323668376
 H         -0.6064689226       -1.1021687711        0.9082601068
 H         -1.9579136487        1.0346182555        0.8652382725
 H         -1.9411003239        1.0067190228       -0.8752409028
 H         -3.1235804630       -1.2275511883       -0.8446180996
 H         -3.1564300568       -1.1792840952        0.8966748976
 H         -4.5405855339        0.9422787919        0.8124470493
 H         -5.3468286498       -0.3789644278       -0.0282600563
 H         -4.5175111999        0.8775752166       -0.9429008010
