  38
         -5.50950753
 C          6.5918488597        0.8049195053        0.1857293691
 C          5.1671151797        1.0615715622       -0.2800447124
 C          4.1869362186       -0.0123657705        0.1940002486
 C          2.7521899642        0.2399867445       -0.2694490884
 C          1.7745678733       -0.8364715329        0.2018404711
 C          0.3386090339       -0.5817022809       -0.2570772846
 C         -0.6375606953       -1.6581824959        0.2186842186
 C         -2.0685232992       -1.4571707798       -0.2884558783
 C         -2.7435660504       -0.2003429785        0.2619119191
 C         -4.1945623143       -0.0553900072       -0.1977265443
 C         -4.8710844330        1.2059014227        0.3414995651
 C         -6.3152798591        1.3392275080       -0.1157727445
 H          7.2827030097        1.5791863746       -0.1566636455
 H          6.9625922639       -0.1526237825       -0.1855919746
 H          6.6513019042        0.7719322955        1.2754507384
 H          4.8253570366        2.0446830669        0.0710171213
 H          5.1331005140        1.1251188732       -1.3760763955
 H          4.2142174770       -0.0784704568        1.2888303667
 H          4.5202176522       -0.9965810782       -0.1582416821
 H          2.4174445645        1.2228087996        0.0854375364
 H          2.7248067555        0.3088926371       -1.3642114183
 H          2.1076317367       -1.8188499800       -0.1559657271
 H          1.8043221878       -0.9078363003        1.2964076433
 H          0.3083083466       -0.5148948714       -1.3518371840
 H          0.0133538824        0.4035397761        0.0979303389
 H         -0.2637096505       -2.6417011962       -0.0961824429
 H         -0.6380125890       -1.6910486806        1.3153381846
 H         -2.6822400450       -2.3312550027       -0.0327909703
 H         -2.0675490274       -1.4201685078       -1.3849543563
 H         -2.1775595212        0.6904820257       -0.0354388824
 H         -2.7036483382       -0.2108704316        1.3582955147
 H         -4.2352296684       -0.0550025573       -1.2942999506
 H         -4.7679644827       -0.9398800877        0.1073096467
 H         -4.2933162784        2.0878975163        0.0326968043
 H         -4.8199247322        1.2041512670        1.4389643059
 H         -6.9134857387        0.4861938975        0.2114042441
 H         -6.3831581865        1.3796018380       -1.2050141047
 H         -6.7894502654        2.2424507371        0.2761077048
