41
 energy: -42.140870895758 gnorm: 0.000290271155 xtb: 6.6.1 (8d0f1dd)
C            5.31574612244786       -1.33138523761454        1.49432777983843
C            3.84707804588041       -1.24255642433166        1.09858041601603
C            3.51262338269428        0.09693805827508        0.44655482505645
C            2.03565409142716        0.20098169458323        0.07431488419995
C            1.69831412241528        1.55091255522175       -0.55632050996193
C            0.20492183621683        1.72666478166038       -0.83641570921803
C           -0.29295558608220        0.85703238105112       -1.98885721269022
C           -1.77862118297537        1.05224131604748       -2.29970962068921
C           -2.72712656329549        0.66881093573730       -1.16188101671800
C           -2.63272840056142       -0.80476340418766       -0.77279124618089
C           -3.67042705273858       -1.22028800899871        0.27116303103065
C           -3.51189621745675       -0.54450901791818        1.63476879686742
C           -2.18026762333737       -0.85283122102933        2.30992242216782
H            5.53150723226494       -2.29223928819496        1.95598995935166
H            5.56724378383387       -0.54568925754910        2.20359847900875
H            5.95394197500900       -1.21918184381335        0.62042652817080
H            3.60865774058277       -2.05165574078732        0.40418098120844
H            3.22422630468541       -1.37559624527539        1.98641241917318
H            4.12173949564002        0.22354484986888       -0.45172911572621
H            3.76943349465470        0.90569417217994        1.13527146777474
H            1.43039563842088        0.06371547083004        0.97433262611417
H            1.78802654569800       -0.60539733628313       -0.61840203686837
H            2.25953383225880        1.66792644413971       -1.48642234334270
H            2.02238757747577        2.34207989054136        0.12488696708598
H            0.01042811536123        2.77429623582978       -1.08034911430916
H           -0.34860050806331        1.49150986855453        0.07408069798644
H           -0.10685653139240       -0.19378438717792       -1.76776955248544
H            0.27985818387896        1.10701924148280       -2.88591561275023
H           -1.95014482735674        2.10114394800080       -2.55607036997781
H           -2.02764497058487        0.45391913893699       -3.18022384486659
H           -3.75055040931383        0.88232332514434       -1.48239180747522
H           -2.52115286975011        1.29613323326943       -0.29474313391299
H           -2.78346340105400       -1.41317417529602       -1.66868291242231
H           -1.63610861647170       -1.02541826322688       -0.39177941442975
H           -3.60639917111703       -2.30270873156926        0.41100949555061
H           -4.66908916140601       -0.99722993900012       -0.11355107594719
H           -4.32239376128775       -0.89126845357168        2.28100380701927
H           -3.62390756476911        0.53569499961220        1.52729012796435
H           -1.35031093736712       -0.42275275029602        1.75520020265057
H           -2.16299591098562       -0.43919514654030        3.31600089335622
H           -2.02762709400055       -1.92802372754238        2.37844008305480
